44

C         -4.58740        2.93500       -0.20650
C         -3.96510        1.70760       -0.21640
C         -4.71560        0.57540       -0.09270
C         -6.10380        0.66470        0.03770
C         -6.71280        1.90140        0.04550
C         -5.95950        3.04260       -0.07580
C         -4.42900       -0.79400       -0.09100
C         -5.66570       -1.45110        0.03150
N         -6.65440       -0.54790        0.10900
C         -5.73130       -2.84240        0.02140
C         -4.54450       -3.53290       -0.11080
C         -3.35620       -2.90290       -0.22370
C         -3.27890       -1.48210       -0.21140
H         -2.44030       -3.42640       -0.32590
H         -7.66950       -0.75560        0.20720
H         -4.57800       -4.62110       -0.12330
H         -2.93470        1.71510       -0.36500
H         -7.80010        1.96440        0.14920
H         -6.43460        4.00950       -0.06860
H         -4.02700        3.85940       -0.30050
S          3.26360        0.50200        0.22930
C          2.11650       -0.61210       -0.36180
N          2.89620       -1.46560       -0.98520
N          4.14720       -1.28350       -0.99800
C          4.69550       -0.25930       -0.40250
C          0.65820       -0.59680       -0.20200
N         -0.12440        0.25480        0.42050
N         -1.37480        0.05640        0.42270
C         -1.94450       -0.93150       -0.14760
S         -0.49170       -1.70570       -0.78950
C          6.08360        0.19920       -0.25350
C          6.26430        1.37230        0.47450
C          7.53210        1.85000        0.64810
C          8.63390        1.20740        0.12590
C          8.45990        0.06310       -0.58450
C          7.14680       -0.45250       -0.77760
O          5.19110        2.03280        1.00520
O          7.02790       -1.60250       -1.49730
H          9.25680       -0.50040       -1.02510
H          5.24990        2.87880        1.53760
H          6.22900       -2.08570       -1.72260
H          7.70980        2.76040        1.20930
H         -6.68730       -3.30510        0.11560
H          9.64870        1.60480        0.27440
