
 OpenBabel09101814253D

 14 15  0  0  0  0  0  0  0  0999 V2000
   -1.6852   -1.5807    0.5205 N   0  0  0  0  0  0  0  0  0  0  0  0
   -0.8870   -0.5343    0.2514 C   0  0  0  0  0  0  0  0  0  0  0  0
   -1.6037    0.6893   -0.0235 C   0  0  0  0  0  0  0  0  0  0  0  0
   -2.9671    0.5111    0.0577 C   0  0  0  0  0  0  0  0  0  0  0  0
   -3.2677   -1.1156    0.4605 S   0  0  0  0  0  0  0  0  0  0  0  0
    0.5513   -0.6314    0.2301 C   0  0  0  0  0  0  0  0  0  0  0  0
    1.2850   -1.7416    0.3547 C   0  0  0  0  0  0  0  0  0  0  0  0
    2.7007   -1.4953    0.2831 C   0  0  0  0  0  0  0  0  0  0  0  0
    3.0561   -0.2075    0.1091 N   0  0  0  0  0  0  0  0  0  0  0  0
    1.6120    0.7397    0.0282 S   0  0  0  0  0  0  0  0  0  0  0  0
    0.8796   -2.7321    0.4903 H   0  0  0  0  0  0  0  0  0  0  0  0
   -1.1317    1.6323   -0.2669 H   0  0  0  0  0  0  0  0  0  0  0  0
    3.8145   -2.8383    0.4179 Br  0  0  0  0  0  0  0  0  0  0  0  0
   -4.2487    1.6769   -0.1893 Br  0  0  0  0  0  0  0  0  0  0  0  0
  2  1  2  0  0  0  0
  3  4  2  0  0  0  0
  3  2  1  0  0  0  0
  4  5  1  0  0  0  0
  5  1  1  0  0  0  0
  6  2  1  0  0  0  0
  6  7  2  0  0  0  0
  7 11  1  0  0  0  0
  8  7  1  0  0  0  0
  8 13  1  0  0  0  0
  9  8  2  0  0  0  0
 10  9  1  0  0  0  0
 10  6  1  0  0  0  0
 12  3  1  0  0  0  0
 14  4  1  0  0  0  0
M  END
