
     RDKit          3D

  0  0  0  0  0  0  0  0  0  0999 V3000
M  V30 BEGIN CTAB
M  V30 COUNTS 55 61 0 0 0
M  V30 BEGIN ATOM
M  V30 1 C -7.2729 0.5447 1.3625 0
M  V30 2 C -8.4195 1.1527 1.7819 0
M  V30 3 C -9.4646 1.4618 0.9480 0
M  V30 4 C -9.3151 1.1250 -0.3715 0
M  V30 5 C -8.1581 0.5086 -0.8097 0
M  V30 6 C -7.0984 0.1988 0.0161 0
M  V30 7 N -7.8751 -0.0055 -2.0911 0
M  V30 8 C -6.6164 -0.6387 -2.0523 0
M  V30 9 C -6.0416 -0.5200 -0.6386 0
M  V30 10 C -4.7605 -0.7374 -0.4273 0
M  V30 11 C -3.9448 -1.6109 -1.2979 0
M  V30 12 N -2.5719 -1.4703 -0.9688 0
M  V30 13 C -2.4531 -0.5371 0.0847 0
M  V30 14 C -3.7582 -0.0938 0.4105 0
M  V30 15 C -3.8077 0.8750 1.3782 0
M  V30 16 C -2.6996 1.4023 2.0225 0
M  V30 17 C -1.4698 0.9381 1.6797 0
M  V30 18 C -1.3523 -0.0174 0.7236 0
M  V30 19 O -4.3184 -2.3940 -2.2052 0
M  V30 20 O -6.1254 -1.1760 -3.0416 0
M  V30 21 H -6.5126 0.2398 2.0490 0
M  V30 22 H -8.5147 1.4114 2.8490 0
M  V30 23 H -8.5074 0.0748 -2.9360 0
M  V30 24 H -1.8112 -1.9774 -1.4437 0
M  V30 25 H -10.3509 1.9462 1.3322 0
M  V30 26 H -4.7463 1.3123 1.6314 0
M  V30 27 H -2.8323 2.1697 2.7825 0
M  V30 28 H -0.5836 1.3576 2.2060 0
M  V30 29 N 3.8905 1.3008 1.1725 0
M  V30 30 C 3.7092 0.2011 0.4533 0
M  V30 31 C 4.8138 -0.3933 -0.0619 0
M  V30 32 C 6.0063 0.1885 0.2030 0
M  V30 33 S 5.5419 1.5472 1.1640 0
M  V30 34 C 2.3261 -0.3243 0.2425 0
M  V30 35 C 1.1533 0.2026 0.6957 0
M  V30 36 C 0.0250 -0.4734 0.3505 0
M  V30 37 N 0.1903 -1.5694 -0.3875 0
M  V30 38 S 1.8346 -1.6996 -0.6208 0
M  V30 39 H 1.1208 1.1390 1.3094 0
M  V30 40 H 4.7200 -1.3165 -0.6716 0
M  V30 41 C 10.0448 -0.6561 -0.7914 0
M  V30 42 C 9.0405 -1.4798 -1.2377 0
M  V30 43 C 7.6965 -1.2472 -0.9392 0
M  V30 44 C 7.3862 -0.1729 -0.1856 0
M  V30 45 C 8.3894 0.6813 0.2813 0
M  V30 46 C 9.7026 0.4204 -0.0329 0
M  V30 47 O 8.0812 1.7889 1.0570 0
M  V30 48 O 6.7518 -2.1000 -1.4114 0
M  V30 49 O 11.3755 -0.9003 -1.0962 0
M  V30 50 H 12.0980 -0.2977 -0.7685 0
M  V30 51 H 7.0123 -2.8923 -1.9705 0
M  V30 52 H 8.8119 2.3986 1.3887 0
M  V30 53 H 10.4568 1.0895 0.3361 0
M  V30 54 H -10.1278 1.3591 -1.0401 0
M  V30 55 H 9.3309 -2.3345 -1.8419 0
M  V30 END ATOM
M  V30 BEGIN BOND
M  V30 0 1 1 21
M  V30 1 1 1 6
M  V30 2 2 2 1
M  V30 3 2 3 4
M  V30 4 1 3 2
M  V30 5 1 4 5
M  V30 6 2 5 6
M  V30 7 1 5 7
M  V30 8 1 6 9
M  V30 9 1 7 8
M  V30 10 1 8 9
M  V30 11 2 8 20
M  V30 12 2 9 10
M  V30 13 1 10 14
M  V30 14 1 11 10
M  V30 15 1 11 12
M  V30 16 1 12 24
M  V30 17 1 12 13
M  V30 18 1 13 18
M  V30 19 2 14 13
M  V30 20 1 14 15
M  V30 21 2 15 16
M  V30 22 1 16 17
M  V30 23 1 16 27
M  V30 24 1 17 28
M  V30 25 2 18 17
M  V30 26 2 19 11
M  V30 27 1 22 2
M  V30 28 1 23 7
M  V30 29 1 25 3
M  V30 30 1 26 15
M  V30 31 2 30 29
M  V30 32 2 31 32
M  V30 33 1 31 30
M  V30 34 1 32 33
M  V30 35 1 33 29
M  V30 36 1 34 30
M  V30 37 2 34 35
M  V30 38 1 35 39
M  V30 39 1 36 35
M  V30 40 2 37 36
M  V30 41 1 38 37
M  V30 42 1 38 34
M  V30 43 1 40 31
M  V30 44 2 41 42
M  V30 45 1 41 46
M  V30 46 1 42 43
M  V30 47 1 43 48
M  V30 48 2 43 44
M  V30 49 1 45 47
M  V30 50 1 45 44
M  V30 51 2 46 45
M  V30 52 1 47 52
M  V30 53 1 49 41
M  V30 54 1 50 49
M  V30 55 1 51 48
M  V30 56 1 53 46
M  V30 57 1 18 36
M  V30 58 1 32 44
M  V30 59 1 4 54
M  V30 60 1 42 55
M  V30 END BOND
M  V30 END CTAB
M  END

$$$$
