   49
Geometry Step: 1149
    C     -7.42067352      1.61958945     -1.93067663      4.08098116
    C     -6.12537630      1.60907995     -1.47498114      4.11933452
    C     -5.59924394      0.44966901     -0.81908835      3.82772717
    C     -6.44758227     -0.70593303     -0.65545390      3.82365849
    C     -7.79293668     -0.65148875     -1.14548217      4.11768795
    C     -8.26034853      0.48207475     -1.76311649      4.08065904
    N     -4.32057146      0.45556073     -0.36678231      5.31137924
    C     -3.86650457     -0.65910451      0.25218844      3.84501078
    C     -4.71033544     -1.82800205      0.38573060      3.82378808
    N     -5.98935803     -1.83609697     -0.06462685      5.30920594
    C     -4.18139648     -3.00711345      1.00175348      4.13077734
    C     -2.88432491     -3.02427845      1.45309931      4.07883503
    C     -2.05503197     -1.88001801      1.33295852      4.11528145
    C     -2.51009238     -0.70215983      0.76110872      3.98485361
    H     -1.04237872     -1.92884667      1.72505067      0.91447287
    H     -2.47991165     -3.91869280      1.92008859      0.91508687
    H     -4.81944437     -3.88070743      1.10407391      0.90299615
    H     -9.28164446      0.52091865     -2.13354761      0.91599803
    H     -5.48547450      2.47893308     -1.60173052      0.90684876
    H     -7.81875166      2.50177202     -2.42563114      0.91604692
    S      2.53170458      3.45541846      0.41590688      5.96899015
    C      1.88783949      1.82228360      0.46371463      3.94637191
    C      2.91030654      0.89258676      0.40204882      4.20629594
    C      4.21851988      1.48115159      0.32252934      3.96821733
    C      4.17104975      2.86195119      0.32845571      4.13984750
    C      0.46610477      1.57496764      0.56273092      3.95638914
    C     -0.18707662      0.35915440      0.60472820      4.17217967
    C     -1.61661304      0.47123141      0.68472498      3.96937528
    C     -2.03334347      1.79076272      0.71367560      4.11401061
    S     -0.68959670      2.89861814      0.64130068      5.97153773
    H      0.33696459     -0.58950209      0.55411351      0.90339059
    H      2.73145477     -0.17534175      0.47641704      0.90202465
    H     -3.05150218      2.14596093      0.80126168      0.88098292
    H      5.01711773      3.53398962      0.26873165      0.88987121
    C      5.48229193      0.70866070      0.26519451      4.08584937
    C      5.60200953     -0.47614797     -0.49933169      3.78859616
    C      6.80528347     -1.19090794     -0.51683322      3.88209158
    C      7.91715838     -0.74608716      0.21643221      3.73638466
    C      7.82137276      0.43610659      0.96468596      4.20350432
    C      6.61775832      1.14572143      0.97757545      4.11963023
    O      9.06617779     -1.47313779      0.17014306      6.46671208
    O      6.91335625     -2.34625276     -1.27351174      6.51002946
    O      4.58004064     -0.95907396     -1.28878220      6.50868890
    H      6.54237709      2.05279125      1.56977820      0.90906676
    H      8.90679705     -2.23679441     -0.40595602      0.63165143
    H      6.05811975     -2.47465029     -1.71416357      0.62103537
    H      3.84461814     -0.32817881     -1.29079678      0.62987932
    H     -8.43508267     -1.51964635     -1.01993285      0.90482216
    H      8.67617330      0.78950914      1.53012393      0.89194417
