   50
Geometry Step: 2278
    C     -4.71871310      2.18743154      1.85691998      4.11732572
    C     -4.13694754      1.13502269      1.15329629      4.08248580
    C     -4.94807009      0.32248405      0.34034116      4.02863955
    C     -6.34765499      0.58044440      0.30559236      3.86726092
    C     -6.93587922      1.64252445      1.00908264      4.16446450
    C     -6.09822833      2.44662129      1.77878321      4.07149915
    C     -4.72241189     -0.84949666     -0.49043381      4.05939295
    C     -6.00679038     -1.26184049     -0.94847360      3.86573666
    N     -6.96286741     -0.37672925     -0.48228034      5.17642648
    C     -6.20502868     -2.41199018     -1.72771844      4.17242471
    C     -5.07954967     -3.17140709     -2.04086007      4.07072688
    C     -3.80092606     -2.77735929     -1.62198516      4.14566487
    C     -3.58456784     -1.60922129     -0.86717448      3.94175007
    H     -2.94294696     -3.37578680     -1.91669664      0.91779491
    H     -7.95876588     -0.44853392     -0.65064892      0.78524650
    H     -5.18866960     -4.07554976     -2.63347480      0.91935557
    H     -3.07219132      0.94542511      1.25312076      0.91330130
    H     -8.00643822      1.82370827      0.96293094      0.91865590
    H     -6.51849967      3.27757238      2.33904348      0.92238493
    H     -4.09607983      2.81883887      2.48489504      0.92111578
    N      2.47785406      0.06978329      0.08228739      5.32497246
    C      1.25404753      0.61273276     -0.27548816      3.85104443
    C      1.28023825      1.96923086     -0.55402064      4.16791164
    S      2.89396865      2.59406915     -0.36356885      6.00053902
    C      3.45854709      0.95604097      0.09304057      3.78281237
    C      0.07685892     -0.24355074     -0.33010698      3.80711127
    S     -1.52898600      0.37613731     -0.78529457      6.04435218
    C     -2.19487990     -1.24015210     -0.55321232      3.99688227
    C     -1.17280085     -2.09586626     -0.18672464      3.98883182
    N      0.07682732     -1.53664222     -0.04809689      5.29383958
    H      0.44462302      2.59048886     -0.85083703      0.88815106
    H     -1.31316517     -3.15463474      0.02269471      0.91953549
    C      7.45070569      3.59722020      0.20054318      4.08217111
    S      5.73060244      3.32248324     -0.05758747      6.00055911
    C      5.87886295      1.61794232      0.39562382      3.97822495
    C      7.23285700      1.32514885      0.72614849      3.96795293
    C      8.09987432      2.47337321      0.60459784      4.14328126
    C      7.59971841      0.02847123      1.11894479      4.13262585
    C      6.59782666     -0.93831899      1.16960543      3.94606540
    C      5.23703598     -0.66681156      0.84154620      3.97508827
    C      4.84891774      0.64837206      0.43857314      4.02754516
    S      6.82394122     -2.62508655      1.63593424      6.01129296
    C      5.11400281     -2.94929155      1.39315406      4.07708567
    C      4.42031474     -1.85036208      0.98485034      4.14319777
    H      9.16322562      2.43656166      0.81598653      0.90084814
    H      3.35481080     -1.86834140      0.78707181      0.86959369
    H      4.70527214     -3.93741998      1.56461103      0.89674377
    H      7.88712738      4.57509463      0.03988116      0.89651382
    H     -7.19656173     -2.70312937     -2.06247597      0.91586343
    H      8.62965958     -0.20580136      1.37335920      0.90770996
