
 OpenBabel08201816333D

 54 55  0  0  0  0  0  0  0  0999 V2000
    2.9491    1.3240    3.9861 C   0  0  0  0  0  0  0  0  0  0  0  0
    3.4712    0.7307    2.8353 C   0  0  0  0  0  0  0  0  0  0  0  0
    2.6410    0.3600    1.7972 C   0  0  0  0  0  0  0  0  0  0  0  0
    1.2641    0.6365    1.8462 C   0  0  0  0  0  0  0  0  0  0  0  0
    0.6889    1.2806    3.0022 C   0  0  0  0  0  0  0  0  0  0  0  0
    1.5460    1.5996    4.1172 C   0  0  0  0  0  0  0  0  0  0  0  0
   -0.7016    1.6243    3.1043 C   0  0  0  0  0  0  0  0  0  0  0  0
   -1.2244    2.2131    4.2569 C   0  0  0  0  0  0  0  0  0  0  0  0
   -0.4185    2.4531    5.3511 C   0  0  0  0  0  0  0  0  0  0  0  0
    0.9583    2.1761    5.3022 C   0  0  0  0  0  0  0  0  0  0  0  0
    1.7100    2.3938    6.4798 N   0  0  0  0  0  0  0  0  0  0  0  0
    2.2582    3.5531    6.6964 C   0  0  0  0  0  0  0  0  0  0  0  0
    2.1724    4.7539    5.7838 C   0  0  0  0  0  0  0  0  0  0  0  0
   -1.6213    1.4925    2.0456 N   0  0  0  0  0  0  0  0  0  0  0  0
   -2.3644    0.4284    1.9620 C   0  0  0  0  0  0  0  0  0  0  0  0
   -3.3777    0.3691    0.8456 C   0  0  0  0  0  0  0  0  0  0  0  0
    0.4677    0.1755    0.7727 N   0  0  0  0  0  0  0  0  0  0  0  0
    0.2745    0.9338   -0.2662 C   0  0  0  0  0  0  0  0  0  0  0  0
    0.8389    2.3211   -0.4630 C   0  0  0  0  0  0  0  0  0  0  0  0
    3.9149    1.7038    4.9385 N   0  0  0  0  0  0  0  0  0  0  0  0
    4.3033    0.8524    5.8417 C   0  0  0  0  0  0  0  0  0  0  0  0
    3.8123   -0.5701    5.9700 C   0  0  0  0  0  0  0  0  0  0  0  0
    5.3863    1.2909    6.7964 C   0  0  0  0  0  0  0  0  0  0  0  0
    2.9754    3.7488    8.0099 C   0  0  0  0  0  0  0  0  0  0  0  0
   -2.3524   -0.7244    2.9377 C   0  0  0  0  0  0  0  0  0  0  0  0
   -0.5117    0.3515   -1.4154 C   0  0  0  0  0  0  0  0  0  0  0  0
    4.5423    0.5548    2.7736 H   0  0  0  0  0  0  0  0  0  0  0  0
   -2.2804    2.4705    4.2837 H   0  0  0  0  0  0  0  0  0  0  0  0
   -1.2596    3.1695    6.9038 Br  0  0  0  0  0  0  0  0  0  0  0  0
    3.4499   -0.5303    0.3192 Br  0  0  0  0  0  0  0  0  0  0  0  0
    2.4289    4.4811    8.6103 H   0  0  0  0  0  0  0  0  0  0  0  0
    3.0348    2.8074    8.5630 H   0  0  0  0  0  0  0  0  0  0  0  0
    3.9871    4.1181    7.8238 H   0  0  0  0  0  0  0  0  0  0  0  0
    1.2924    5.3439    6.0538 H   0  0  0  0  0  0  0  0  0  0  0  0
    3.0629    5.3757    5.9127 H   0  0  0  0  0  0  0  0  0  0  0  0
    2.1110    4.4676    4.7326 H   0  0  0  0  0  0  0  0  0  0  0  0
    6.2829    0.6900    6.6219 H   0  0  0  0  0  0  0  0  0  0  0  0
    5.6301    2.3465    6.6476 H   0  0  0  0  0  0  0  0  0  0  0  0
    5.0480    1.1441    7.8253 H   0  0  0  0  0  0  0  0  0  0  0  0
    4.3219   -1.1925    5.2293 H   0  0  0  0  0  0  0  0  0  0  0  0
    4.0425   -0.9548    6.9675 H   0  0  0  0  0  0  0  0  0  0  0  0
    2.7321   -0.6323    5.8230 H   0  0  0  0  0  0  0  0  0  0  0  0
    1.8148    2.2425   -0.9496 H   0  0  0  0  0  0  0  0  0  0  0  0
    0.1719    2.8993   -1.1089 H   0  0  0  0  0  0  0  0  0  0  0  0
    0.9442    2.8594    0.4803 H   0  0  0  0  0  0  0  0  0  0  0  0
    0.1507    0.2300   -2.2767 H   0  0  0  0  0  0  0  0  0  0  0  0
   -0.9282   -0.6230   -1.1457 H   0  0  0  0  0  0  0  0  0  0  0  0
   -1.3283    1.0276   -1.6811 H   0  0  0  0  0  0  0  0  0  0  0  0
   -2.9282   -0.4477    3.8252 H   0  0  0  0  0  0  0  0  0  0  0  0
   -2.8155   -1.6035    2.4808 H   0  0  0  0  0  0  0  0  0  0  0  0
   -1.3335   -0.9893    3.2273 H   0  0  0  0  0  0  0  0  0  0  0  0
   -4.3838    0.3835    1.2734 H   0  0  0  0  0  0  0  0  0  0  0  0
   -3.2640    1.2239    0.1732 H   0  0  0  0  0  0  0  0  0  0  0  0
   -3.2408   -0.5538    0.2762 H   0  0  0  0  0  0  0  0  0  0  0  0
  1  6  1  0  0  0  0
  1 20  1  0  0  0  0
  2  1  2  0  0  0  0
  3  4  2  0  0  0  0
  3  2  1  0  0  0  0
  4  5  1  0  0  0  0
  5  7  2  0  0  0  0
  5  6  1  0  0  0  0
  6 10  2  0  0  0  0
  7  8  1  0  0  0  0
  8 28  1  0  0  0  0
  8  9  2  0  0  0  0
  9 29  1  0  0  0  0
 10  9  1  0  0  0  0
 10 11  1  0  0  0  0
 11 12  2  0  0  0  0
 12 24  1  0  0  0  0
 13 35  1  0  0  0  0
 13 12  1  0  0  0  0
 13 34  1  0  0  0  0
 14 15  2  0  0  0  0
 14  7  1  0  0  0  0
 15 25  1  0  0  0  0
 16 52  1  0  0  0  0
 16 15  1  0  0  0  0
 17  4  1  0  0  0  0
 18 17  2  0  0  0  0
 19 18  1  0  0  0  0
 19 45  1  0  0  0  0
 20 21  2  0  0  0  0
 21 23  1  0  0  0  0
 22 21  1  0  0  0  0
 22 41  1  0  0  0  0
 23 38  1  0  0  0  0
 23 39  1  0  0  0  0
 24 32  1  0  0  0  0
 24 31  1  0  0  0  0
 25 49  1  0  0  0  0
 25 51  1  0  0  0  0
 26 47  1  0  0  0  0
 26 18  1  0  0  0  0
 27  2  1  0  0  0  0
 30  3  1  0  0  0  0
 33 24  1  0  0  0  0
 36 13  1  0  0  0  0
 37 23  1  0  0  0  0
 40 22  1  0  0  0  0
 42 22  1  0  0  0  0
 43 19  1  0  0  0  0
 44 19  1  0  0  0  0
 46 26  1  0  0  0  0
 48 26  1  0  0  0  0
 50 25  1  0  0  0  0
 53 16  1  0  0  0  0
 54 16  1  0  0  0  0
M  END
