   86
Geometry Step: 2648
    C      7.99222411      1.49736509      1.82479769      4.11721017
    C      7.37330526      0.55765789      1.00316640      4.08223237
    C      8.16813097     -0.27719565      0.19678620      4.02850084
    C      9.58391545     -0.15997904      0.28796978      3.86751310
    C     10.21017786      0.78856044      1.11070376      4.16497962
    C      9.39181139      1.62061706      1.87150566      4.07180717
    C      7.90162861     -1.36324119     -0.73290066      4.05972400
    C      9.17447862     -1.87193270     -1.12086480      3.86567001
    N     10.16850663     -1.12039342     -0.51920460      5.17678420
    C      9.32648297     -2.98265275     -1.96503765      4.17368581
    C      8.16357134     -3.60255213     -2.41784864      4.07108597
    C      6.89801825     -3.10977680     -2.06992526      4.14707997
    C      6.73166816     -1.97773165     -1.25002888      3.94044021
    H      6.01442550     -3.59816638     -2.47236829      0.91858973
    H     11.16355703     -1.28081057     -0.61627402      0.78552723
    H      8.23490718     -4.47230246     -3.06525123      0.91999256
    H      6.29075781      0.47062665      1.00684315      0.91236767
    H     11.29326928      0.86351259      1.15972040      0.91899288
    H      9.84135465      2.36626625      2.52186294      0.92262714
    H      7.38251305      2.14581046      2.44803206      0.92080293
    N      0.79983795      0.23641344     -0.61981863      5.33765341
    C      2.09257543      0.67752881     -0.86830932      3.85780286
    C      2.21333693      2.03878415     -1.08926429      4.17023537
    S      0.65239578      2.80960217     -0.98766009      6.03038745
    C     -0.09120228      1.21012492     -0.63842015      3.75739241
    C      3.18344570     -0.28665247     -0.89110957      3.79737756
    S      4.87324071      0.19521098     -1.17586367      6.04414099
    C      5.36231487     -1.49216951     -1.01594809      4.00016305
    C      4.23724822     -2.26315185     -0.79418277      3.99024892
    N      3.03848296     -1.59115790     -0.70901979      5.30988833
    H      3.12282455      2.58570071     -1.30415401      0.89203180
    H      4.25758698     -3.34260089     -0.65500742      0.92211262
    C     -4.16128150     -1.34094749      0.86159702      3.81825577
    C     -5.54125503     -1.37481643      1.05978563      4.17503184
    C     -6.34578489     -0.26800534      0.73457680      4.16589204
    C     -5.77865666      0.89096372      0.20711001      3.82540373
    C     -4.36451260      0.95849504     -0.01225639      4.04329689
    C     -3.54076331     -0.16641913      0.31310224      4.06001101
    C     -3.74818287      2.14069895     -0.54919123      3.83013145
    C     -2.37601035      2.18065146     -0.73814652      4.19764462
    C     -1.53192611      1.07556735     -0.42424801      4.07488168
    C     -2.11821500     -0.10075771      0.09707023      3.81420352
    N     -1.31147113     -1.14061606      0.58203883      5.28308946
    C     -0.68484668     -2.00776261     -0.14062666      3.70938770
    C      0.25836219     -2.97931767      0.51391974      4.29375935
    N     -4.52789901      3.30475716     -0.74804528      5.28916915
    C     -4.58843702      3.93441951     -1.87487034      3.75571146
    C     -5.39526392      5.20688788     -1.95930394      4.27823766
    N     -6.60720626      1.94594307     -0.24138284      5.28793863
    C     -7.42817764      2.58204469      0.52720888      3.75582496
    C     -8.31764901      3.64451447     -0.07037260      4.27814217
    N     -3.40799523     -2.51878713      1.07093049      5.29168980
    C     -3.29258162     -3.09408117      2.22156313      3.75228041
    C     -2.53588708     -4.39525768      2.32135087      4.27940201
    C     -3.83829440     -2.53388534      3.52059896      4.28672046
    C     -0.83154882     -2.11808431     -1.64257486      4.28066997
    C     -3.93310853      3.47128785     -3.16202390      4.28775870
    C     -7.54624473      2.37467346      2.02511939      4.28733570
    H     -6.00069839     -2.27898557      1.44887846      0.91307004
    H     -1.92538932      3.09417022     -1.11934820      0.90942878
    H      0.13532088     -1.97560934     -2.12351726      0.89497270
    H     -1.19273185     -3.10904309     -1.91738692      0.91373172
    H     -1.52580476     -1.37411889     -2.02440582      0.90872699
    H      0.17738882     -2.94001537      1.59658032      0.90786466
    H      0.06877133     -3.99886245      0.17971209      0.92046152
    H      1.28460727     -2.72392285      0.23065448      0.87810708
    H     -4.13332301     -1.49422492      3.40770665      0.89914911
    H     -4.70977881     -3.10303765      3.84584104      0.90866722
    H     -3.09227827     -2.60724014      4.31029693      0.91134865
    H     -3.15451364     -5.16877139      2.77656189      0.91320982
    H     -1.65538820     -4.27788698      2.95362150      0.90934844
    H     -2.21306304     -4.73728521      1.34231549      0.90356237
    H     -8.08008342      4.62247934      0.34981791      0.91167754
    H     -9.36544542      3.44659563      0.15599674      0.91407855
    H     -8.19657893      3.69555229     -1.14856771      0.90404992
    H     -7.61438484      3.33263903      2.53820279      0.91305077
    H     -6.69453914      1.82387546      2.41522520      0.89937108
    H     -8.45153734      1.81552226      2.26428324      0.90875702
    H     -3.64705768      2.42439130     -3.10498649      0.89930201
    H     -4.60863106      3.60944909     -4.00466952      0.91363786
    H     -3.03636069      4.05687539     -3.36770703      0.90753361
    H     -6.22836708      5.08637679     -2.65268970      0.91200375
    H     -5.79435285      5.48276381     -0.98744791      0.90454298
    H     -4.78545553      6.02906414     -2.33408689      0.91364706
    H     10.31014162     -3.34968761     -2.24375280      0.91619463
    H     -7.42192133     -0.32494404      0.87191573      0.91358564
