
     RDKit          3D

  0  0  0  0  0  0  0  0  0  0999 V3000
M  V30 BEGIN CTAB
M  V30 COUNTS 86 92 0 0 0
M  V30 BEGIN ATOM
M  V30 1 C 8.4603 1.3022 1.9093 0
M  V30 2 C 7.7518 0.4550 1.0546 0
M  V30 3 C 8.4522 -0.2901 0.1493 0
M  V30 4 C 9.8209 -0.2283 0.0684 0
M  V30 5 C 10.5142 0.6122 0.9170 0
M  V30 6 C 9.8431 1.3753 1.8313 0
M  V30 7 C 8.0374 -1.2298 -0.7939 0
M  V30 8 C 9.1945 -1.7314 -1.4256 0
M  V30 9 N 10.2285 -1.0910 -0.8664 0
M  V30 10 C 9.1401 -2.7193 -2.3918 0
M  V30 11 C 7.8748 -3.1860 -2.7023 0
M  V30 12 C 6.7408 -2.7375 -2.1401 0
M  V30 13 C 6.8250 -1.7141 -1.1491 0
M  V30 14 H 5.7718 -3.1424 -2.4283 0
M  V30 15 H 11.2430 -1.2544 -1.1459 0
M  V30 16 H 7.8007 -3.9769 -3.4734 0
M  V30 17 H 6.7190 0.4048 1.2042 0
M  V30 18 H 11.5969 0.6184 0.8107 0
M  V30 19 H 10.4187 2.0078 2.4658 0
M  V30 20 H 7.9509 1.9052 2.6314 0
M  V30 21 N 0.9084 0.5827 -0.0695 0
M  V30 22 C 2.1196 1.0641 -0.1826 0
M  V30 23 C 2.2819 2.3917 -0.2654 0
M  V30 24 S 0.6265 2.9286 -0.1819 0
M  V30 25 C -0.1217 1.3681 -0.0447 0
M  V30 26 C 3.2593 0.0717 -0.3874 0
M  V30 27 S 4.8938 0.4436 -0.6433 0
M  V30 28 C 5.5154 -1.1194 -0.8595 0
M  V30 29 C 4.3350 -1.8774 -0.7040 0
M  V30 30 N 3.2536 -1.2051 -0.4714 0
M  V30 31 H 3.1861 3.0119 -0.3545 0
M  V30 32 H 4.3579 -2.9774 -0.7793 0
M  V30 33 C -4.1509 -1.3350 0.7682 0
M  V30 34 C -5.5568 -1.4036 0.7543 0
M  V30 35 C -6.3513 -0.3660 0.3512 0
M  V30 36 C -5.7539 0.7874 -0.0552 0
M  V30 37 C -4.3885 0.9119 -0.0639 0
M  V30 38 C -3.5667 -0.1642 0.3521 0
M  V30 39 C -3.7707 2.0640 -0.4536 0
M  V30 40 C -2.3850 2.1943 -0.4525 0
M  V30 41 C -1.5748 1.1233 -0.0442 0
M  V30 42 C -2.1678 -0.0429 0.3521 0
M  V30 43 N -1.3112 -1.1346 0.6769 0
M  V30 44 C -0.8478 -1.9865 -0.1846 0
M  V30 45 C 0.0334 -3.0648 0.2864 0
M  V30 46 N -4.5321 3.1772 -0.8978 0
M  V30 47 C -4.5161 3.5170 -2.1219 0
M  V30 48 C -5.3321 4.7162 -2.6026 0
M  V30 49 N -6.6313 1.8641 -0.4426 0
M  V30 50 C -7.2214 2.5570 0.5224 0
M  V30 51 C -8.1345 3.6749 0.1837 0
M  V30 52 N -3.4594 -2.4697 1.2579 0
M  V30 53 C -3.6686 -3.0295 2.3796 0
M  V30 54 C -2.8419 -4.2320 2.7436 0
M  V30 55 C -4.6812 -2.5763 3.3569 0
M  V30 56 C -1.1986 -1.8848 -1.6203 0
M  V30 57 C -3.7720 2.8343 -3.1972 0
M  V30 58 C -6.9546 2.2592 1.9406 0
M  V30 59 H -6.0330 -2.3126 1.0684 0
M  V30 60 H -1.9419 3.1050 -0.7504 0
M  V30 61 H -0.2937 -1.7466 -2.2533 0
M  V30 62 H -1.7196 -2.8123 -1.9233 0
M  V30 63 H -1.8264 -1.0004 -1.8138 0
M  V30 64 H 0.4094 -2.8769 1.3269 0
M  V30 65 H -0.5366 -4.0158 0.2650 0
M  V30 66 H 0.9517 -3.2051 -0.3258 0
M  V30 67 H -4.8952 -1.5048 3.2449 0
M  V30 68 H -5.5904 -3.2135 3.3517 0
M  V30 69 H -4.2759 -2.6673 4.4161 0
M  V30 70 H -3.5548 -5.0922 2.8997 0
M  V30 71 H -2.3206 -3.9989 3.6709 0
M  V30 72 H -2.1893 -4.5342 1.9206 0
M  V30 73 H -7.7147 4.6657 0.5158 0
M  V30 74 H -9.1309 3.5925 0.6839 0
M  V30 75 H -8.3881 3.7140 -0.9020 0
M  V30 76 H -6.8565 3.1990 2.5443 0
M  V30 77 H -5.9874 1.6779 1.9899 0
M  V30 78 H -7.7470 1.6535 2.4319 0
M  V30 79 H -3.4902 1.8044 -2.9268 0
M  V30 80 H -4.3887 2.8108 -4.1420 0
M  V30 81 H -2.8426 3.3847 -3.4798 0
M  V30 82 H -6.0431 4.3206 -3.3354 0
M  V30 83 H -5.8450 5.1131 -1.7196 0
M  V30 84 H -4.6293 5.4479 -3.0669 0
M  V30 85 H 10.0556 -3.0549 -2.8306 0
M  V30 86 H -7.4399 -0.5077 0.3734 0
M  V30 END ATOM
M  V30 BEGIN BOND
M  V30 0 1 1 20
M  V30 1 1 2 17
M  V30 2 2 2 1
M  V30 3 1 3 2
M  V30 4 2 4 3
M  V30 5 1 4 5
M  V30 6 2 5 6
M  V30 7 1 6 1
M  V30 8 1 6 19
M  V30 9 1 7 3
M  V30 10 1 8 9
M  V30 11 2 8 7
M  V30 12 1 9 4
M  V30 13 1 10 8
M  V30 14 2 11 10
M  V30 15 1 11 12
M  V30 16 2 12 13
M  V30 17 1 13 7
M  V30 18 1 14 12
M  V30 19 1 15 9
M  V30 20 1 16 11
M  V30 21 1 18 5
M  V30 22 1 22 21
M  V30 23 1 23 24
M  V30 24 2 23 22
M  V30 25 1 24 25
M  V30 26 2 25 21
M  V30 27 1 26 22
M  V30 28 2 26 30
M  V30 29 1 27 28
M  V30 30 1 27 26
M  V30 31 2 28 29
M  V30 32 1 29 30
M  V30 33 1 29 32
M  V30 34 1 31 23
M  V30 35 1 33 38
M  V30 36 1 33 52
M  V30 37 2 34 33
M  V30 38 2 35 36
M  V30 39 1 35 34
M  V30 40 1 36 37
M  V30 41 2 37 39
M  V30 42 1 37 38
M  V30 43 2 38 42
M  V30 44 1 39 40
M  V30 45 1 40 60
M  V30 46 2 40 41
M  V30 47 1 42 41
M  V30 48 1 42 43
M  V30 49 2 43 44
M  V30 50 1 44 56
M  V30 51 1 45 65
M  V30 52 1 45 44
M  V30 53 1 45 64
M  V30 54 2 46 47
M  V30 55 1 46 39
M  V30 56 1 47 57
M  V30 57 1 48 82
M  V30 58 1 48 47
M  V30 59 1 49 36
M  V30 60 2 50 49
M  V30 61 1 51 50
M  V30 62 1 51 75
M  V30 63 2 52 53
M  V30 64 1 53 55
M  V30 65 1 54 53
M  V30 66 1 54 71
M  V30 67 1 55 68
M  V30 68 1 55 69
M  V30 69 1 56 62
M  V30 70 1 56 61
M  V30 71 1 57 79
M  V30 72 1 57 81
M  V30 73 1 58 77
M  V30 74 1 58 50
M  V30 75 1 59 34
M  V30 76 1 63 56
M  V30 77 1 66 45
M  V30 78 1 67 55
M  V30 79 1 70 54
M  V30 80 1 72 54
M  V30 81 1 73 51
M  V30 82 1 74 51
M  V30 83 1 76 58
M  V30 84 1 78 58
M  V30 85 1 80 57
M  V30 86 1 83 48
M  V30 87 1 84 48
M  V30 88 1 13 28
M  V30 89 1 25 41
M  V30 90 1 10 85
M  V30 91 1 35 86
M  V30 END BOND
M  V30 END CTAB
M  END

$$$$
