66

C          8.40130        1.34940        2.45770
C          7.49530        0.89060        1.50720
C          7.90070       -0.09900        0.65080
C          9.18300       -0.63430        0.73420
C         10.04990       -0.13420        1.70910
C          9.67390        0.85950        2.57930
C          7.25690       -0.79710       -0.36690
C          8.19040       -1.72080       -0.82910
N          9.33600       -1.61080       -0.16530
C          7.86490       -2.62110       -1.80370
C          6.59560       -2.59900       -2.32370
C          5.67880       -1.68810       -1.87480
C          6.00220       -0.73880       -0.86150
H          4.67010       -1.63640       -2.25630
H         10.22920       -2.16410       -0.28460
H          6.32610       -3.30930       -3.09300
H          6.50710        1.30480        1.52370
H         11.04830       -0.54420        1.77880
H         10.36590        1.23710        3.33230
H          8.10070        2.14500        3.15600
N          0.40560        1.57590       -0.32740
C          1.46990        2.31210       -0.41220
C          1.30010        3.67450       -0.41680
S         -0.39810        3.81060       -0.29750
C         -0.77740        2.14660       -0.25010
C          2.84710        1.73810       -0.50320
S          3.31300        0.10200       -0.51640
C          5.04600        0.32270       -0.64130
C          5.09800        1.68450       -0.66290
N          3.99100        2.35510       -0.59220
H          2.08260        4.45320       -0.48200
H          6.07400        2.23270       -0.76490
C         -3.51640       -0.39680       -0.02410
C         -4.65630        0.37270        0.04770
C         -4.50260        1.74750        0.02000
C         -3.24570        2.30730       -0.07630
C         -2.10940        1.53690       -0.14780
C         -2.24250        0.16870       -0.12170
N         -5.93400       -0.23470        0.14600
C         -6.09680       -1.30950        1.05660
C         -6.75400       -2.48010        0.76430
C         -6.88380       -3.50340        1.69900
C         -6.34450       -3.35230        2.95300
C         -5.68470       -2.19260        3.26600
C         -5.56660       -1.19620        2.33380
C         -7.02030        0.19600       -0.62330
C         -8.25650        0.36420       -0.02630
C         -9.34580        0.78860       -0.76340
C         -9.23680        1.05510       -2.10280
C         -8.01290        0.89440       -2.72010
C         -6.93950        0.47160       -1.97290
H         -8.38850        0.16460        1.03240
H        -10.32140        0.92020       -0.28760
H         -7.94050        1.10520       -3.76440
H         -5.97590        0.34740       -2.46970
H         -7.17500       -2.60560       -0.20510
H         -7.39810       -4.43000        1.48320
H         -6.44520       -4.15940        3.69450
H         -5.26370       -2.07620        4.24680
H         -5.04080       -0.26750        2.57750
H         -5.37010        2.41260        0.07370
H         -3.14070        3.38000       -0.09680
H         -1.38780       -0.48850       -0.17450
H         -3.62490       -1.47120       -0.00330
H          8.58680       -3.36020       -2.18260
H        -10.09320        1.39400       -2.70620
