   51
Geometry Step: 1328
    C      5.00681833     -2.15092036     -1.68218372      4.11737074
    C      4.33444629     -1.28655045     -0.82083735      4.08229827
    C      5.06720429     -0.31553943     -0.11428416      4.02844259
    C      6.48163321     -0.28551877     -0.27251355      3.86739186
    C      7.16119109     -1.15127908     -1.14287826      4.16465733
    C      6.40057861     -2.07894883     -1.85113489      4.07160416
    C      4.73858754      0.70627132      0.86688050      4.05938299
    C      5.97984897      1.27000382      1.28037740      3.86571467
    N      7.00852280      0.68083143      0.56656927      5.17655896
    C      6.07669990      2.24977540      2.28040568      4.17297104
    C      4.89135571      2.66051400      2.88688010      4.07095813
    C      3.65382273      2.13894607      2.48440616      4.14643842
    C      3.53971884      1.17944979      1.46081029      3.94092861
    H      2.74786571      2.51061587      2.95591089      0.91854246
    H      7.99307627      0.88922777      0.67851184      0.78535373
    H      4.92114438      3.40948347      3.67351854      0.91975720
    H      3.26019721     -1.38289583     -0.69342592      0.91280004
    H      8.24156376     -1.10609530     -1.25161986      0.91877706
    H      6.89257840     -2.76725502     -2.53318143      0.92248982
    H      4.44499024     -2.90154174     -2.23138878      0.92114149
    N     -2.36345840     -0.25421401     -0.45859697      5.29260982
    C     -1.10419434      0.05455561     -0.96146749      3.85877625
    C     -1.02585231      0.10784156     -2.34326044      4.16453055
    S     -2.57752793     -0.24123087     -3.05368314      6.01577442
    C     -3.25599792     -0.42428712     -1.40883643      3.77810134
    C      0.00136709      0.29408115     -0.04424900      3.80541765
    S      1.64414626      0.67549715     -0.61969708      6.04810187
    C      2.18769467      0.76259446      1.05590462      3.99827317
    C      1.10854582      0.52952697      1.88795806      3.98984277
    N     -0.09239587      0.25506938      1.27506268      5.29115936
    H     -0.14965659      0.33565644     -2.93745565      0.88916949
    H      1.17081581      0.52107954      2.97457988      0.91981437
    C     -4.65630597     -0.84560742     -1.20518260      3.97550871
    C     -5.50699684     -0.28397741     -0.18984785      4.03778771
    C     -6.77851184     -0.89860597      0.05657432      3.93348500
    C     -7.20021023     -1.99032406     -0.75127385      4.10674820
    C     -6.40613065     -2.45323057     -1.77750505      4.07510226
    C     -5.13498362     -1.88628635     -1.99618600      4.11309172
    C     -7.62085247     -0.40693407      1.09438040      4.15850700
    C     -7.24181515      0.68029694      1.85256518      4.05580912
    C     -6.02872145      1.34745240      1.58211824      4.23877638
    C     -5.18768490      0.88988133      0.57130775      3.67769773
    O     -4.07788127      1.60231033      0.26895772      6.44564342
    H     -5.75496233      2.23428649      2.14829737      0.91718168
    H     -6.73997817     -3.27568384     -2.40460058      0.91818227
    H     -4.49367385     -2.30143626     -2.77088012      0.91841720
    H     -7.88649324      1.04879118      2.64549994      0.91595347
    H     -8.57226112     -0.89954252      1.27467021      0.91467863
    H     -3.96647708      2.33747663      0.88546295      0.64806835
    H      7.03737807      2.66135580      2.57648455      0.91599771
    H     -8.16836841     -2.44506698     -0.55532436      0.91821277
