51

C          5.15050       -2.10710       -1.56700
C          4.48350       -1.19340       -0.77230
C          5.19370       -0.26210       -0.06100
C          6.59040       -0.25340       -0.14430
C          7.24820       -1.16750       -0.93790
C          6.53350       -2.09790       -1.65360
C          4.86500        0.74700        0.83490
C          6.08030        1.32700        1.27480
N          7.07100        0.69580        0.65910
C          6.09260        2.33040        2.21470
C          4.88630        2.75810        2.71620
C          3.71640        2.20390        2.28760
C          3.68150        1.16560        1.31160
H          2.78530        2.54050        2.68060
H          8.09230        0.94580        0.81480
H          4.94020        3.55100        3.46040
H          3.44770       -1.30990       -0.71400
H          8.34000       -1.12260       -0.97390
H          7.04370       -2.79810       -2.26410
H          4.63630       -2.86110       -2.15030
N         -2.36930       -0.17260       -0.58470
C         -1.17020       -0.07440       -1.05600
C         -1.02260       -0.32250       -2.40550
S         -2.62290       -0.67010       -2.85000
C         -3.40110       -0.48170       -1.29190
C          0.01120        0.28510       -0.21190
S          1.62400        0.44810       -0.68470
C          2.36210        0.86040        0.77950
C          1.20520        0.84490        1.62240
N          0.09270        0.55680        1.07460
H         -0.08820       -0.28970       -2.99050
H          1.30490        1.07760        2.70500
C         -4.81800       -0.76920       -1.15400
C         -5.63290       -0.36170       -0.13250
C         -6.94940       -0.79600       -0.01300
C         -7.48210       -1.66590       -0.94230
C         -6.70830       -2.09470       -1.97830
C         -5.41720       -1.65580       -2.07530
C         -7.80800       -0.38330        0.99220
C         -7.33110        0.50650        1.91840
C         -6.04590        0.98260        1.86310
C         -5.21340        0.53200        0.82290
O         -3.95340        1.03910        0.80670
H         -5.66060        1.67950        2.57990
H         -7.15970       -2.77810       -2.69350
H         -4.80580       -1.99100       -2.88530
H         -7.95510        0.87820        2.74550
H         -8.82340       -0.73540        1.06630
H         -3.56910        1.69680        1.46600
H          7.04450        2.76490        2.54280
H         -8.51490       -2.00250       -0.83960
