   48
Geometry Step: 1246
    C      5.17050926     -0.23574689     -2.93406290      4.11567187
    C      4.49862204     -0.38416117     -1.72349688      4.08041861
    C      5.23322244     -0.71091298     -0.56767175      4.03006984
    C      6.64318797     -0.86660988     -0.68368371      3.86734163
    C      7.32181651     -0.72454295     -1.90374152      4.16522846
    C      6.56290459     -0.40764551     -3.02742187      4.06767461
    C      4.90774017     -0.91626294      0.83527731      4.04253293
    C      6.14834478     -1.16692938      1.49379518      3.86850382
    N      7.17087012     -1.14988896      0.56385894      5.17499206
    C      6.25549446     -1.36858504      2.87766573      4.16066773
    C      5.08282471     -1.30067605      3.62699191      4.07261952
    C      3.84993292     -1.05428335      3.01043702      4.13608034
    C      3.72163794     -0.87579331      1.61933920      3.97649387
    H      2.95396530     -1.02418002      3.62633075      0.91530901
    H      8.15256312     -1.28722668      0.77068638      0.78442844
    H      5.12053976     -1.44342429      4.70308508      0.91688307
    H      3.42159844     -0.25186798     -1.67863555      0.89646891
    H      8.39920239     -0.85227248     -1.96606598      0.91839227
    H      7.05336413     -0.28918211     -3.99000293      0.92218920
    H      4.60787951      0.01535291     -3.82909686      0.91988922
    S     -2.36400096     -0.10225182     -0.89267577      6.03613950
    C     -1.36177850      0.13113167      0.54889504      3.83778869
    N     -2.02370724      0.66216325      1.56864700      5.17725496
    N     -3.33211828      0.91186528      1.28324782      5.16344054
    C     -3.70641710      0.58300901      0.04952920      3.81430776
    C      0.03713110     -0.22705513      0.58963422      3.83338025
    N      0.68895833     -0.76191438     -0.43478605      5.18511388
    N      2.00511040     -1.01659109     -0.16444118      5.18414466
    C      2.38066621     -0.67804709      1.05966525      3.80787504
    S      1.04640504      0.00540577      2.02298088      6.04000566
    C     -5.71330478     -0.26816870     -3.91417493      4.07375372
    S     -7.35932401      0.27144131     -3.64030015      6.00310183
    C     -6.96126721      0.74410827     -1.98675561      3.94549768
    C     -5.59147648      0.48094508     -1.68567434      3.99187793
    C     -4.91449291     -0.10030652     -2.82237957      4.14907291
    C     -5.08340152      0.79795385     -0.39167839      4.02911392
    C     -5.99938861      1.36608696      0.52722166      3.96462163
    C     -7.36152345      1.62012646      0.20576546      3.96814057
    C     -7.85120476      1.30445464     -1.07170129      4.12986019
    S     -5.65616328      1.85427253      2.18472274      5.97833678
    C     -7.32100273      2.38385730      2.41661971      4.09199831
    C     -8.08924009      2.20234744      1.30831164      4.15057619
    H     -3.86938681     -0.38672264     -2.83480812      0.89377346
    H     -9.14021856      2.46523007      1.25108004      0.90208747
    H     -7.65148319      2.80299148      3.35920245      0.89802935
    H     -5.41196392     -0.68403281     -4.86750602      0.89644609
    H      7.21689015     -1.55920636      3.34618424      0.91482329
    H     -8.88881738      1.49194526     -1.33401346      0.90758233
