
     RDKit          3D

  0  0  0  0  0  0  0  0  0  0999 V3000
M  V30 BEGIN CTAB
M  V30 COUNTS 48 55 0 0 0
M  V30 BEGIN ATOM
M  V30 1 C 5.5220 -0.2005 -2.8319 0
M  V30 2 C 4.8007 -0.3155 -1.6403 0
M  V30 3 C 5.4766 -0.7007 -0.5165 0
M  V30 4 C 6.8340 -0.9661 -0.5481 0
M  V30 5 C 7.5209 -0.8424 -1.7461 0
M  V30 6 C 6.8703 -0.4633 -2.8783 0
M  V30 7 C 5.0792 -0.8838 0.8094 0
M  V30 8 C 6.2488 -1.2471 1.5062 0
M  V30 9 N 7.2882 -1.2899 0.6604 0
M  V30 10 C 6.2320 -1.4707 2.8658 0
M  V30 11 C 5.0304 -1.3248 3.5030 0
M  V30 12 C 3.8858 -0.9775 2.8422 0
M  V30 13 C 3.9053 -0.7497 1.4363 0
M  V30 14 H 2.9306 -0.8584 3.3231 0
M  V30 15 H 8.2741 -1.5310 0.8951 0
M  V30 16 H 5.0147 -1.4978 4.5756 0
M  V30 17 H 3.7898 -0.0539 -1.7016 0
M  V30 18 H 8.5882 -1.0526 -1.7692 0
M  V30 19 H 7.3872 -0.3612 -3.8259 0
M  V30 20 H 5.0325 0.1000 -3.7510 0
M  V30 21 S -2.5528 0.0036 -0.8669 0
M  V30 22 C -1.3908 0.1952 0.3594 0
M  V30 23 N -2.1536 0.7290 1.3029 0
M  V30 24 N -3.3718 0.9388 1.1058 0
M  V30 25 C -3.9284 0.6206 -0.0816 0
M  V30 26 C 0.0281 -0.1006 0.4525 0
M  V30 27 N 0.7721 -0.6371 -0.5096 0
M  V30 28 N 1.9881 -0.8413 -0.2996 0
M  V30 29 C 2.6010 -0.5680 0.8034 0
M  V30 30 S 1.1973 0.0848 1.6667 0
M  V30 31 C -5.9535 -0.3426 -3.8873 0
M  V30 32 S -7.5103 0.1808 -3.4622 0
M  V30 33 C -7.2079 0.7108 -1.8700 0
M  V30 34 C -5.8675 0.4601 -1.7060 0
M  V30 35 C -5.2192 -0.0888 -2.7605 0
M  V30 36 C -5.3300 0.8031 -0.4642 0
M  V30 37 C -6.1570 1.3661 0.5171 0
M  V30 38 C -7.4850 1.6152 0.3563 0
M  V30 39 C -8.0335 1.2703 -0.8972 0
M  V30 40 S -5.8623 1.8996 2.1134 0
M  V30 41 C -7.4310 2.4219 2.5283 0
M  V30 42 C -8.1457 2.1600 1.3922 0
M  V30 43 H -4.1336 -0.3557 -2.7969 0
M  V30 44 H -9.2345 2.4138 1.3918 0
M  V30 45 H -7.8112 2.8650 3.4679 0
M  V30 46 H -5.5803 -0.7852 -4.8300 0
M  V30 47 H 7.1291 -1.7508 3.4141 0
M  V30 48 H -9.0674 1.4185 -1.1436 0
M  V30 END ATOM
M  V30 BEGIN BOND
M  V30 0 1 1 20
M  V30 1 1 2 17
M  V30 2 2 2 1
M  V30 3 1 3 2
M  V30 4 2 4 3
M  V30 5 1 4 5
M  V30 6 2 5 6
M  V30 7 1 6 1
M  V30 8 1 6 19
M  V30 9 1 7 3
M  V30 10 1 8 9
M  V30 11 2 8 7
M  V30 12 1 9 4
M  V30 13 1 10 8
M  V30 14 2 11 10
M  V30 15 1 11 12
M  V30 16 2 12 13
M  V30 17 1 13 7
M  V30 18 1 14 12
M  V30 19 1 15 9
M  V30 20 1 16 11
M  V30 21 1 18 5
M  V30 22 1 21 25
M  V30 23 1 21 22
M  V30 24 2 22 23
M  V30 25 1 24 23
M  V30 26 2 25 24
M  V30 27 1 26 22
M  V30 28 1 26 30
M  V30 29 1 27 28
M  V30 30 2 27 26
M  V30 31 2 28 29
M  V30 32 1 29 30
M  V30 33 1 31 46
M  V30 34 1 32 31
M  V30 35 2 33 34
M  V30 36 1 33 32
M  V30 37 1 34 35
M  V30 38 2 35 31
M  V30 39 1 35 43
M  V30 40 1 36 34
M  V30 41 2 37 36
M  V30 42 2 38 39
M  V30 43 1 38 37
M  V30 44 1 39 33
M  V30 45 1 40 37
M  V30 46 2 41 42
M  V30 47 1 41 40
M  V30 48 1 42 38
M  V30 49 1 44 42
M  V30 50 1 45 41
M  V30 51 1 13 29
M  V30 52 1 25 36
M  V30 53 1 10 47
M  V30 54 1 39 48
M  V30 END BOND
M  V30 END CTAB
M  END

$$$$
