45

C         -5.41040       -0.80980        2.35660
C         -4.59170       -0.41110        1.29160
C         -5.20280       -0.03750        0.12420
C         -6.58610       -0.04850        0.00090
C         -7.37430       -0.44480        1.06360
C         -6.77790       -0.82270        2.23290
C         -4.70200        0.42430       -1.07790
C         -5.82620        0.68360       -1.88200
N         -6.94050        0.38880       -1.20960
C         -5.69200        1.19850       -3.14750
C         -4.42460        1.45240       -3.60760
C         -3.32510        1.20760       -2.85580
C         -3.46070        0.67130       -1.54490
H         -2.31910        1.39140       -3.17860
H         -7.94590        0.47520       -1.54780
H         -4.27270        1.86550       -4.60940
H         -3.56360       -0.39560        1.50150
H         -8.46100       -0.44260        0.93110
H         -7.43390       -1.12820        3.04290
H         -4.98270       -1.11540        3.29760
S          2.63340       -1.13890        0.91980
C          1.76600       -0.03150       -0.05870
N          2.74010        0.72800       -0.48770
N          3.93650        0.51210       -0.13860
C          4.20680       -0.50310        0.67740
C          0.32340       -0.01350       -0.29490
N         -0.58840       -0.84290        0.19710
N         -1.78820       -0.67740       -0.11390
C         -2.21770        0.26360       -0.89760
S         -0.64840        1.01610       -1.23000
C          5.50510       -0.92020        1.19580
N          5.67200       -1.95350        2.00970
C          6.86340       -2.34570        2.49260
C          8.01030       -1.63790        2.12960
C          7.86800       -0.56250        1.28730
C          6.62290       -0.20230        0.82060
N          8.94020        0.14210        0.91520
C          8.83910        1.20270        0.09060
C          7.59660        1.56750       -0.37920
N          6.52450        0.85510       -0.00110
H          6.91950       -3.20020        3.15300
H          9.70380        1.78300       -0.21860
H          7.44490        2.41940       -1.05240
H         -6.54510        1.40860       -3.78780
H          8.96440       -1.97120        2.53090
