   46
Geometry Step: 1232
    C     -6.38370213      2.93682063     -1.25384431      4.08107502
    C     -5.16395518      2.33790835     -1.05616590      4.11913307
    C     -5.08286708      1.05275342     -0.42923230      3.82775618
    C     -6.29959125      0.40581572     -0.00159569      3.82361717
    C     -7.55079397      1.06627959     -0.22818713      4.11781210
    C     -7.58512432      2.29562465     -0.83848122      4.08068654
    N     -3.87224087      0.46892432     -0.24731225      5.31095254
    C     -3.84243638     -0.74800873      0.34418084      3.84499047
    C     -5.06266047     -1.37941607      0.80097798      3.82373589
    N     -6.27440678     -0.79858246      0.61899114      5.30943820
    C     -4.98988333     -2.64452164      1.46712729      4.13093377
    C     -3.77141552     -3.24393855      1.67314272      4.07886563
    C     -2.57315593     -2.63491789      1.22075044      4.11538589
    C     -2.57505341     -1.41886202      0.55534803      3.98430209
    H     -1.63260283     -3.15495470      1.38368449      0.91483288
    H     -3.71324154     -4.20378938      2.18004650      0.91537233
    H     -5.90839440     -3.11701706      1.80452165      0.90313819
    H     -8.53579758      2.79437043     -1.00955448      0.91610845
    H     -4.24711155      2.82755147     -1.37524365      0.90668263
    H     -6.44304178      3.91106548     -1.73240458      0.91606449
    S      2.95980492     -1.43785009      1.90429944      5.96178825
    C      2.42381758     -0.52036225      0.49487210      3.95417965
    C      3.49735308      0.09788067     -0.11037175      4.15359321
    C      4.75301740     -0.15119752      0.53927085      4.00455067
    C      4.61549120     -0.96958196      1.64851200      4.11899937
    C      1.03126974     -0.47989830      0.10312947      3.95572108
    C     -0.04111236     -1.09821604      0.71350882      4.17083258
    C     -1.30294324     -0.83984443      0.07885656      3.97021620
    C     -1.16583005     -0.02421755     -1.03068659      4.11363584
    S      0.49339102      0.43324949     -1.30362797      5.97013793
    H      0.06705967     -1.70002148      1.61065153      0.90187362
    H      3.40777748      0.71744620     -0.99640520      0.88742782
    H     -1.95367291      0.29642719     -1.69935077      0.88104743
    H      5.40667942     -1.30512170      2.30736457      0.88429323
    N      7.62853912     -0.54948539      1.78768069      5.15019030
    C      7.28895892      0.16987904      0.70128600      3.93801250
    C      8.48217630      0.75236371      0.17493704      3.85739570
    N      9.51216072      0.37247491      0.95338169      5.15649771
    O      8.96732575     -0.40976149      1.91476580      5.91304734
    C      8.41093923      1.57158538     -0.98644524      4.17005948
    C      7.15423479      1.74328570     -1.52885338      3.90792190
    N      5.99728762      1.18883577     -1.03302760      5.32497418
    C      6.02069352      0.41248403      0.05712751      3.78719067
    H      7.03121003      2.36240108     -2.42320202      0.93898462
    H     -8.46911786      0.57907748      0.08983876      0.90493675
    H      9.29146522      2.03486199     -1.42146186      0.90160846
