46

C         -5.96600        3.23210       -0.71740
C         -4.82120        2.46850       -0.70960
C         -4.82990        1.16700       -0.23620
C         -5.99260        0.59500        0.24390
C         -7.13920        1.35480        0.23780
C         -7.12510        2.66390       -0.23960
N         -3.71860        0.41210       -0.22370
C         -3.73440       -0.85570        0.23920
C         -4.89820       -1.43370        0.72170
N         -6.01010       -0.67790        0.70900
C         -4.88270       -2.73060        1.18930
C         -3.74690       -3.50770        1.20560
C         -2.59200       -2.93520        0.72710
C         -2.60010       -1.63400        0.25620
H         -1.69800       -3.53190        0.73460
H         -3.80720       -4.52160        1.58820
H         -5.81870       -3.12730        1.55260
H         -8.02620        3.27000       -0.24760
H         -3.91240        2.92020       -1.08650
H         -5.94150        4.26030       -1.09560
S          2.94250       -1.39230        1.86110
C          2.34280       -0.71110        0.41970
C          3.45900       -0.16370       -0.15300
C          4.61510       -0.29770        0.51080
C          4.58670       -0.96770        1.70200
C          0.96160       -0.69490       -0.11530
C         -0.16480       -1.23400        0.43870
C         -1.30950       -1.08410       -0.24940
C         -1.25310       -0.41110       -1.43570
S          0.39950       -0.00430       -1.55960
H         -0.07240       -1.76250        1.42040
H          3.35930        0.36130       -1.13110
H         -2.08960       -0.19900       -2.12580
H          5.43980       -1.17050        2.37830
N          6.68360        1.23450        2.14250
C          6.74300        0.91520        0.85370
C          7.93160        1.40680        0.36210
N          8.53800        2.00830        1.40040
O          7.77620        1.89390        2.45330
C          8.23950        1.20870       -0.96160
C          7.35810        0.52280       -1.77860
N          6.18640        0.03700       -1.29790
C          5.91070        0.24730        0.00820
H          7.58700        0.35990       -2.82000
H         -8.06700        0.92540        0.61110
H          9.15750        1.58330       -1.36050
