   49
Geometry Step: 1953
    C     -4.20843073     -3.96685533      1.27059958      4.11330653
    C     -4.08103742     -2.61067012      0.98160543      4.08199350
    C     -5.21285592     -1.77888167      1.08105264      4.03389208
    C     -6.45392445     -2.36822547      1.45320843      3.86571601
    C     -6.58364765     -3.73348354      1.75062212      4.16308296
    C     -5.44059666     -4.52290636      1.65694995      4.06706845
    C     -5.48024854     -0.36842749      0.84362651      4.04861687
    C     -6.87874909     -0.19058630      1.06091407      3.86543579
    N     -7.43777973     -1.39514091      1.44370261      5.17418937
    C     -7.53244043      1.03689363      0.87647046      4.16080447
    C     -6.76195917      2.11531517      0.44800959      4.07019091
    C     -5.38467779      1.97473419      0.23305057      4.13559530
    C     -4.71141315      0.75608488      0.43963861      3.99276809
    H     -4.80909641      2.84200234     -0.07891863      0.91670288
    H     -8.41797438     -1.54733524      1.64744157      0.78373853
    H     -7.22975829      3.08190575      0.28500278      0.91644177
    H     -3.11719054     -2.21434879      0.67946302      0.90600279
    H     -7.54237062     -4.15771877      2.03643126      0.91736921
    H     -5.50216006     -5.58494609      1.87857565      0.92081756
    H     -3.33720468     -4.61162420      1.19606245      0.91858344
    C      2.19007178      1.99976026     -1.46969618      3.84703699
    N      1.36158709      2.83481517     -2.11755706      5.18458039
    O      0.10170073      2.52950797     -1.70639619      6.06205523
    C      0.13452290      1.52302316     -0.81769688      3.77365439
    C      1.44467195      1.13366369     -0.61885452      4.25665748
    C     -1.12854152      1.05589522     -0.26336614      3.88345005
    N     -1.18274845      0.05749571      0.63106766      5.17258358
    O     -2.49607819     -0.12144898      0.93067836      6.05479411
    C     -3.25831640      0.73956257      0.24016737      3.75785166
    C     -2.44019386      1.53563733     -0.54160179      4.26896608
    H     -2.72840213      2.32131776     -1.22434682      0.88165569
    H      1.81105779      0.35329455      0.03246539      0.87825128
    S     11.73558969      0.25066430     -0.98269030      6.08717554
    C      9.96187452      0.33882857     -0.86372364      3.96103923
    C      9.33235190     -0.52523729     -0.02812435      3.96133408
    S     10.32688790     -1.68313440      0.88737187      6.08706133
    C     11.95808138     -1.13314162      0.21940535      4.01409962
    S      7.56311935     -0.43246069      0.08620305      6.02940440
    C      7.40989497      0.91398774     -1.08968938      3.98837157
    S      8.96473948      1.49152713     -1.77438946      6.03141925
    C      6.21221547      1.45239536     -1.43337422      3.96996801
    S      6.04406146      2.79354878     -2.60287984      6.01835128
    C      4.28391602      2.89603776     -2.49731482      4.10589521
    C      3.63673464      2.03908513     -1.66595589      3.96534124
    S      4.65744626      0.88593156     -0.75833323      6.04948886
    H     12.45809889     -1.97481105     -0.27430301      0.92866694
    H     12.60384275     -0.80685410      1.04324733      0.92865936
    H     -8.59972933      1.13784234      1.05175839      0.91415457
    H      3.76545865      3.63738038     -3.09617970      0.88571606
