46

C          4.66450        3.01220        1.16220
C          4.16580        1.77190        0.82110
C          5.01760        0.78790        0.39360
C          6.38270        1.04020        0.30940
C          6.84970        2.29660        0.66010
C          6.01270        3.27830        1.08180
C          4.85900       -0.52320        0.01340
C          6.11380       -1.06410       -0.29040
N          7.00300       -0.07490       -0.09660
C          6.29080       -2.38270       -0.67520
C          5.19160       -3.20170       -0.76680
C          3.95630       -2.69730       -0.48070
C          3.79140       -1.34830       -0.09150
H          3.11500       -3.36910       -0.56370
H          8.04440       -0.15580       -0.24120
H          5.35940       -4.23310       -1.06830
H          3.12960        1.65470        0.95920
H          7.90140        2.50900        0.59980
H          6.38620        4.26580        1.35520
H          4.03110        3.82360        1.50420
S         -2.95430        0.00980       -0.00780
C         -4.26150       -1.03160        0.34750
N         -3.61840       -2.16050        0.62750
N         -2.35900       -2.19520        0.57270
C         -1.68430       -1.10210        0.23540
C         -0.22550       -0.92350        0.11140
N          0.44540        0.17270       -0.22660
N          1.69800        0.12430       -0.27700
C          2.38990       -0.94300       -0.01630
S          1.04640       -2.02470        0.35160
C         -5.83960        2.64810       -0.59170
N         -5.34580        1.43720       -0.28130
C         -6.21290        0.45250        0.03580
C         -7.59230        0.66120        0.04840
N         -8.07060        1.87590       -0.26380
C         -7.20060        2.85260       -0.57890
C         -8.47890       -0.34430        0.37230
C         -7.95460       -1.57960        0.68790
C         -6.57840       -1.79580        0.67750
C         -5.71240       -0.77780        0.35120
H         -6.15930       -2.77220        0.92670
H         -8.59290       -2.40260        0.94850
H         -7.55810        3.84090       -0.83460
H         -5.18340        3.48750       -0.85780
H          7.29720       -2.74240       -0.89700
H         -9.56010       -0.15710        0.37560
