
 OpenBabel09101814273D

 14 15  0  0  0  0  0  0  0  0999 V2000
   -2.8925   -0.1847    0.1931 C   0  0  0  0  0  0  0  0  0  0  0  0
   -2.6064    0.6169    1.2184 N   0  0  0  0  0  0  0  0  0  0  0  0
   -1.2253    0.7524    1.1883 O   0  0  0  0  0  0  0  0  0  0  0  0
   -0.7158    0.0295    0.1465 C   0  0  0  0  0  0  0  0  0  0  0  0
   -1.7539   -0.5867   -0.5167 C   0  0  0  0  0  0  0  0  0  0  0  0
    0.7279   -0.0569   -0.1891 C   0  0  0  0  0  0  0  0  0  0  0  0
    1.1890   -0.7769   -1.2197 N   0  0  0  0  0  0  0  0  0  0  0  0
    2.5659   -0.6056   -1.2015 O   0  0  0  0  0  0  0  0  0  0  0  0
    2.9041    0.2083   -0.1677 C   0  0  0  0  0  0  0  0  0  0  0  0
    1.7731    0.5858    0.5084 C   0  0  0  0  0  0  0  0  0  0  0  0
    1.7066    1.2274    1.3741 H   0  0  0  0  0  0  0  0  0  0  0  0
   -1.6847   -1.2281   -1.3826 H   0  0  0  0  0  0  0  0  0  0  0  0
    4.6445    0.7226    0.2524 Br  0  0  0  0  0  0  0  0  0  0  0  0
   -4.6378   -0.7160   -0.2490 Br  0  0  0  0  0  0  0  0  0  0  0  0
  1  2  2  0  0  0  0
  3  2  1  0  0  0  0
  4  3  1  0  0  0  0
  5  1  1  0  0  0  0
  5  4  2  0  0  0  0
  6  4  1  0  0  0  0
  6 10  1  0  0  0  0
  7  6  2  0  0  0  0
  8  7  1  0  0  0  0
  8  9  1  0  0  0  0
  9 13  1  0  0  0  0
  9 10  2  0  0  0  0
 10 11  1  0  0  0  0
 12  5  1  0  0  0  0
 14  1  1  0  0  0  0
M  END
