   51
Geometry Step: 1502
    C     -6.62750627     -1.74601518     -2.20196695      4.11806404
    C     -5.74706688     -1.01491540     -1.40870941      4.07745442
    C     -6.25107817     -0.29300867     -0.31074232      4.02951460
    C     -7.64713534     -0.35741486     -0.04088058      3.86654189
    C     -8.53792314     -1.08827590     -0.84229230      4.16487073
    C     -8.00649970     -1.77894322     -1.92833688      4.06768050
    C     -5.66500158      0.53551318      0.73081675      4.03662506
    C     -6.74088905      0.90356898      1.59179583      3.87120059
    N     -7.92146913      0.37705973      1.09907598      5.17590940
    C     -6.56201623      1.66626271      2.75487816      4.15367397
    C     -5.26233263      2.05272819      3.07549996      4.07714735
    C     -4.18562557      1.70377451      2.24999587      4.11472139
    C     -4.35370084      0.96693469      1.06425564      4.01442514
    H     -3.18359057      2.02905179      2.51584994      0.90526589
    H     -8.83228086      0.47694770      1.53014391      0.78454784
    H     -5.07958107      2.63563741      3.97387432      0.91747850
    H     -4.68630950     -1.00662047     -1.63968854      0.90456666
    H     -9.60083876     -1.11872742     -0.61814693      0.91821407
    H     -8.66534980     -2.35697935     -2.57090270      0.92213148
    H     -6.24365416     -2.30422245     -3.05160730      0.92103512
    C      2.76319613      0.17116664      0.63206366      3.60621479
    N      1.57130886      0.24488800     -0.01279793      5.38735636
    C      0.47513124      0.41901183      0.76015928      3.65613796
    N      0.52285298      0.52016620      2.11391110      5.36447361
    C      1.74629199      0.43612346      2.67225783      3.69272123
    N      2.88914719      0.26340497      1.98391990      5.37262926
    C     -0.85303888      0.50565025      0.09020045      3.66008431
    N     -1.94975872      0.67108047      0.86154684      5.37957007
    C     -3.15038138      0.73808023      0.23023192      3.60107475
    N     -3.26545067      0.66803590     -1.12204642      5.38028254
    C     -2.12252436      0.51156543     -1.81489531      3.69557686
    N     -0.89738473      0.41811447     -1.26430140      5.36646713
    H     -2.19541491      0.45710144     -2.91167072      0.95558742
    H      1.81520944      0.51439316      3.76726030      0.95272381
    S     11.91973375     -0.73900621      1.13295244      6.08403464
    C     10.39820265     -0.65312727      0.21433610      3.96206680
    C     10.45897223     -0.76465749     -1.13670020      3.96137984
    S     12.05527183     -0.98856788     -1.89049614      6.08477464
    C     13.03179959     -0.96718369     -0.32340621      4.01449172
    S      8.93687219     -0.67803461     -2.04692908      6.03004428
    C      7.90838247     -0.45833377     -0.59447592      3.98308482
    S      8.80231939     -0.42996374      0.95904698      6.02358905
    C      6.55914859     -0.32376884     -0.66243141      3.98357615
    S      5.65828962     -0.35081074     -2.20958047      5.99958919
    C      4.06933403     -0.13003934     -1.49333447      4.07257869
    C      3.98887500     -0.01639168     -0.14080785      4.01519930
    S      5.51777379     -0.10390203      0.77447536      6.02111221
    H     13.58671166     -1.90719872     -0.22097362      0.92785312
    H     13.76745533     -0.15495998     -0.35750369      0.92786764
    H     -7.40449937      1.93400704      3.38678511      0.91623823
    H      3.19592232     -0.08939947     -2.13680891      0.88055093
