
     RDKit          3D

  0  0  0  0  0  0  0  0  0  0999 V3000
M  V30 BEGIN CTAB
M  V30 COUNTS 51 58 0 0 0
M  V30 BEGIN ATOM
M  V30 1 C -6.8142 -1.4638 -1.9709 0
M  V30 2 C -5.8399 -0.7420 -1.3078 0
M  V30 3 C -6.2144 0.0185 -0.2311 0
M  V30 4 C -7.5480 0.0521 0.1792 0
M  V30 5 C -8.4978 -0.6757 -0.4977 0
M  V30 6 C -8.1390 -1.4301 -1.5669 0
M  V30 7 C -5.5280 0.8214 0.6585 0
M  V30 8 C -6.4425 1.3228 1.5959 0
M  V30 9 N -7.6417 0.8290 1.2576 0
M  V30 10 C -6.0830 2.1332 2.6509 0
M  V30 11 C -4.7606 2.4518 2.7674 0
M  V30 12 C -3.8386 1.9917 1.8783 0
M  V30 13 C -4.2172 1.1553 0.7866 0
M  V30 14 H -2.7766 2.2235 1.9369 0
M  V30 15 H -8.5311 1.0353 1.7826 0
M  V30 16 H -4.4371 3.0959 3.6012 0
M  V30 17 H -4.8520 -0.8552 -1.6535 0
M  V30 18 H -9.5318 -0.6272 -0.1525 0
M  V30 19 H -8.8846 -2.0012 -2.0991 0
M  V30 20 H -6.5778 -2.0781 -2.8254 0
M  V30 21 C 2.6228 -0.9305 0.5592 0
M  V30 22 N 1.5021 -0.5658 -0.0776 0
M  V30 23 C 0.3583 -0.2888 0.5693 0
M  V30 24 N 0.3766 -0.3922 1.9069 0
M  V30 25 C 1.4725 -0.7537 2.5958 0
M  V30 26 N 2.5853 -1.0178 1.8934 0
M  V30 27 C -0.8579 0.1069 -0.1220 0
M  V30 28 N -1.9855 0.3794 0.5238 0
M  V30 29 C -3.1536 0.7568 -0.1045 0
M  V30 30 N -3.0761 0.8306 -1.4081 0
M  V30 31 C -1.9741 0.5692 -2.1045 0
M  V30 32 N -0.8581 0.2054 -1.4616 0
M  V30 33 H -2.0310 0.6653 -3.1933 0
M  V30 34 H 1.4603 -0.8302 3.6850 0
M  V30 35 S 11.8660 0.1022 1.1953 0
M  V30 36 C 10.4304 -0.6243 0.3282 0
M  V30 37 C 10.5103 -0.5574 -0.9359 0
M  V30 38 S 12.0243 0.2386 -1.5599 0
M  V30 39 C 12.5257 1.2097 -0.1153 0
M  V30 40 S 9.0878 -1.2756 -1.8237 0
M  V30 41 C 7.9076 -1.4433 -0.4983 0
M  V30 42 S 8.9248 -1.4174 0.9647 0
M  V30 43 C 6.6142 -1.5557 -0.6135 0
M  V30 44 S 5.6004 -1.5807 -2.0891 0
M  V30 45 C 4.0013 -1.1752 -1.4339 0
M  V30 46 C 3.8912 -1.2382 -0.1509 0
M  V30 47 S 5.3918 -1.7267 0.6989 0
M  V30 48 H 13.6062 1.2550 0.0142 0
M  V30 49 H 12.0079 2.1842 -0.0850 0
M  V30 50 H -6.8213 2.4974 3.3522 0
M  V30 51 H 3.1456 -0.8846 -2.0871 0
M  V30 END ATOM
M  V30 BEGIN BOND
M  V30 0 1 1 20
M  V30 1 1 2 17
M  V30 2 2 2 1
M  V30 3 1 3 2
M  V30 4 2 4 3
M  V30 5 1 4 5
M  V30 6 2 5 6
M  V30 7 1 6 1
M  V30 8 1 6 19
M  V30 9 1 7 3
M  V30 10 1 8 9
M  V30 11 2 8 7
M  V30 12 1 9 4
M  V30 13 1 10 8
M  V30 14 2 11 10
M  V30 15 1 11 12
M  V30 16 2 12 13
M  V30 17 1 13 7
M  V30 18 1 14 12
M  V30 19 1 15 9
M  V30 20 1 16 11
M  V30 21 1 18 5
M  V30 22 2 21 22
M  V30 23 1 21 26
M  V30 24 1 22 23
M  V30 25 1 23 27
M  V30 26 2 23 24
M  V30 27 1 25 24
M  V30 28 1 25 34
M  V30 29 2 26 25
M  V30 30 2 27 28
M  V30 31 1 28 29
M  V30 32 2 30 29
M  V30 33 1 31 30
M  V30 34 2 32 31
M  V30 35 1 32 27
M  V30 36 1 33 31
M  V30 37 1 35 39
M  V30 38 2 36 37
M  V30 39 1 36 35
M  V30 40 1 37 38
M  V30 41 1 38 39
M  V30 42 1 39 49
M  V30 43 1 39 48
M  V30 44 1 40 37
M  V30 45 1 41 42
M  V30 46 1 41 40
M  V30 47 1 42 36
M  V30 48 2 43 41
M  V30 49 1 44 43
M  V30 50 2 45 46
M  V30 51 1 45 44
M  V30 52 1 46 47
M  V30 53 1 47 43
M  V30 54 1 13 29
M  V30 55 1 21 46
M  V30 56 1 10 50
M  V30 57 1 45 51
M  V30 END BOND
M  V30 END CTAB
M  END

$$$$
