
 OpenBabel09101815333D

 16 17  0  0  0  0  0  0  0  0999 V2000
   -1.6504   -1.6613   -0.6031 S   0  0  0  0  0  0  0  0  0  0  0  0
   -0.7203   -0.3130   -0.0604 C   0  0  0  0  0  0  0  0  0  0  0  0
   -1.5506    0.6508    0.4935 C   0  0  0  0  0  0  0  0  0  0  0  0
   -2.9158    0.2713    0.4632 C   0  0  0  0  0  0  0  0  0  0  0  0
   -3.1240   -0.9579   -0.1026 C   0  0  0  0  0  0  0  0  0  0  0  0
    0.7252   -0.2421   -0.1868 C   0  0  0  0  0  0  0  0  0  0  0  0
    1.5411    0.8026    0.2231 C   0  0  0  0  0  0  0  0  0  0  0  0
    2.9108    0.5574   -0.0464 C   0  0  0  0  0  0  0  0  0  0  0  0
    3.1365   -0.6505   -0.6501 C   0  0  0  0  0  0  0  0  0  0  0  0
    1.6739   -1.4981   -0.8937 S   0  0  0  0  0  0  0  0  0  0  0  0
    1.1711    1.7036    0.6957 H   0  0  0  0  0  0  0  0  0  0  0  0
    4.2544    1.8022    0.4008 Br  0  0  0  0  0  0  0  0  0  0  0  0
   -4.2762    1.3833    1.1469 Br  0  0  0  0  0  0  0  0  0  0  0  0
   -1.1936    1.5874    0.9026 H   0  0  0  0  0  0  0  0  0  0  0  0
    4.0782   -1.0813   -0.9609 H   0  0  0  0  0  0  0  0  0  0  0  0
   -4.0589   -1.4808   -0.2493 H   0  0  0  0  0  0  0  0  0  0  0  0
  1  2  1  0  0  0  0
  1  5  1  0  0  0  0
  2  3  2  0  0  0  0
  3 14  1  0  0  0  0
  4  3  1  0  0  0  0
  4 13  1  0  0  0  0
  5  4  2  0  0  0  0
  6  2  1  0  0  0  0
  6  7  2  0  0  0  0
  7 11  1  0  0  0  0
  8  7  1  0  0  0  0
  8 12  1  0  0  0  0
  9  8  2  0  0  0  0
 10  9  1  0  0  0  0
 10  6  1  0  0  0  0
 15  9  1  0  0  0  0
 16  5  1  0  0  0  0
M  END
