61

C         -8.64960        3.27780       -0.64130
C         -7.44780        2.59740       -0.77100
C         -7.25930        1.33870       -0.23870
C         -8.32240        0.77440        0.43550
C         -9.53020        1.44610        0.57160
C         -9.70300        2.69920        0.03610
N         -6.09180        0.68140       -0.36670
C         -5.90160       -0.54510        0.14950
C         -6.96820       -1.10830        0.82470
N         -8.13800       -0.45440        0.95510
C         -6.79320       -2.36510        1.36270
C         -5.60380       -3.05060        1.24140
C         -4.56780       -2.43910        0.55450
C         -4.69440       -1.18460       -0.00090
H         -3.64230       -2.98750        0.46710
H         -5.45230       -4.03990        1.65990
H         -7.60350       -2.83990        1.89840
H        -10.66400        3.22260        0.14990
H         -6.63340        3.06570       -1.30490
H         -8.81780        4.26570       -1.05180
S          1.21270        0.97800       -1.75740
C          0.08000        0.20710       -0.75550
C          0.81490       -0.20490        0.29200
C          2.14760        0.06240        0.30300
C          2.61970        0.74430       -0.78490
C         -1.35300        0.05120       -1.01770
C         -2.29990       -0.55190       -0.25600
C         -3.56120       -0.55430       -0.73800
C         -3.78060        0.04650       -1.94510
S         -2.21230        0.59620       -2.36750
H         -2.01710       -1.01640        0.72060
H          0.30080       -0.75880        1.11700
H         -4.73420        0.14480       -2.49790
H          3.59480        1.10890       -1.07820
C          4.74440       -0.85850        2.88280
C          3.80630       -1.23460        3.80050
S          2.35880       -0.94560        2.97680
C          2.99730       -0.34670        1.47200
C          4.31950       -0.40090        1.68110
C          5.36140       -0.01620        0.61570
C          5.53880       -1.11100       -0.35580
C          6.46460       -0.81040       -1.46490
C          7.88110       -0.52830       -1.26880
C          8.36290        0.62920       -0.49840
C          7.88450        1.97390       -1.01060
H          5.81570       -0.95580        3.18200
H          7.19910        2.47210       -0.26310
H          7.29280        1.86830       -1.94860
H          8.69230        2.69320       -1.18080
H          6.35910        0.07040        1.15440
H          5.20970        0.98190        0.23460
H          4.58910       -1.59840       -0.69760
H          6.04530       -1.98410        0.21410
H          6.01500       -0.02140       -2.16290
H          6.42820       -1.74290       -2.15130
H          8.40540        0.51980        0.57500
H          9.50670        0.67500       -0.76050
H          8.41450       -1.43520       -0.84250
H          8.35980       -0.46730       -2.30760
H        -10.35970        0.99240        1.10450
H          3.97990       -1.62640        4.81950
