
     RDKit          3D

  0  0  0  0  0  0  0  0  0  0999 V3000
M  V30 BEGIN CTAB
M  V30 COUNTS 61 66 0 0 0
M  V30 BEGIN ATOM
M  V30 1 C -8.6496 3.2778 -0.6413 0
M  V30 2 C -7.4478 2.5974 -0.7710 0
M  V30 3 C -7.2593 1.3387 -0.2387 0
M  V30 4 C -8.3224 0.7744 0.4355 0
M  V30 5 C -9.5302 1.4461 0.5716 0
M  V30 6 C -9.7030 2.6992 0.0361 0
M  V30 7 N -6.0918 0.6814 -0.3667 0
M  V30 8 C -5.9016 -0.5451 0.1495 0
M  V30 9 C -6.9682 -1.1083 0.8247 0
M  V30 10 N -8.1380 -0.4544 0.9551 0
M  V30 11 C -6.7932 -2.3651 1.3627 0
M  V30 12 C -5.6038 -3.0506 1.2414 0
M  V30 13 C -4.5678 -2.4391 0.5545 0
M  V30 14 C -4.6944 -1.1846 -0.0009 0
M  V30 15 H -3.6423 -2.9875 0.4671 0
M  V30 16 H -5.4523 -4.0399 1.6599 0
M  V30 17 H -7.6035 -2.8399 1.8984 0
M  V30 18 H -10.6640 3.2226 0.1499 0
M  V30 19 H -6.6334 3.0657 -1.3049 0
M  V30 20 H -8.8178 4.2657 -1.0518 0
M  V30 21 S 1.2127 0.9780 -1.7574 0
M  V30 22 C 0.0800 0.2071 -0.7555 0
M  V30 23 C 0.8149 -0.2049 0.2920 0
M  V30 24 C 2.1476 0.0624 0.3030 0
M  V30 25 C 2.6197 0.7443 -0.7849 0
M  V30 26 C -1.3530 0.0512 -1.0177 0
M  V30 27 C -2.2999 -0.5519 -0.2560 0
M  V30 28 C -3.5612 -0.5543 -0.7380 0
M  V30 29 C -3.7806 0.0465 -1.9451 0
M  V30 30 S -2.2123 0.5962 -2.3675 0
M  V30 31 H -2.0171 -1.0164 0.7206 0
M  V30 32 H 0.3008 -0.7588 1.1170 0
M  V30 33 H -4.7342 0.1448 -2.4979 0
M  V30 34 H 3.5948 1.1089 -1.0782 0
M  V30 35 C 4.7444 -0.8585 2.8828 0
M  V30 36 C 3.8063 -1.2346 3.8005 0
M  V30 37 S 2.3588 -0.9456 2.9768 0
M  V30 38 C 2.9973 -0.3467 1.4720 0
M  V30 39 C 4.3195 -0.4009 1.6811 0
M  V30 40 C 5.3614 -0.0162 0.6157 0
M  V30 41 C 5.5388 -1.1110 -0.3558 0
M  V30 42 C 6.4646 -0.8104 -1.4649 0
M  V30 43 C 7.8811 -0.5283 -1.2688 0
M  V30 44 C 8.3629 0.6292 -0.4984 0
M  V30 45 C 7.8845 1.9739 -1.0106 0
M  V30 46 H 5.8157 -0.9558 3.1820 0
M  V30 47 H 7.1991 2.4721 -0.2631 0
M  V30 48 H 7.2928 1.8683 -1.9486 0
M  V30 49 H 8.6923 2.6932 -1.1808 0
M  V30 50 H 6.3591 0.0704 1.1544 0
M  V30 51 H 5.2097 0.9819 0.2346 0
M  V30 52 H 4.5891 -1.5984 -0.6976 0
M  V30 53 H 6.0453 -1.9841 0.2141 0
M  V30 54 H 6.0150 -0.0214 -2.1629 0
M  V30 55 H 6.4282 -1.7429 -2.1513 0
M  V30 56 H 8.4054 0.5198 0.5750 0
M  V30 57 H 9.5067 0.6750 -0.7605 0
M  V30 58 H 8.4145 -1.4352 -0.8425 0
M  V30 59 H 8.3598 -0.4673 -2.3076 0
M  V30 60 H -10.3597 0.9924 1.1045 0
M  V30 61 H 3.9799 -1.6264 4.8195 0
M  V30 END ATOM
M  V30 BEGIN BOND
M  V30 0 2 1 6
M  V30 1 2 2 3
M  V30 2 1 2 1
M  V30 3 1 3 4
M  V30 4 1 4 10
M  V30 5 2 4 5
M  V30 6 1 6 18
M  V30 7 1 6 5
M  V30 8 2 7 8
M  V30 9 1 7 3
M  V30 10 1 8 9
M  V30 11 1 9 11
M  V30 12 2 9 10
M  V30 13 1 11 17
M  V30 14 1 12 16
M  V30 15 2 12 11
M  V30 16 1 13 12
M  V30 17 2 14 13
M  V30 18 1 14 8
M  V30 19 1 15 13
M  V30 20 1 19 2
M  V30 21 1 20 1
M  V30 22 1 21 22
M  V30 23 1 21 25
M  V30 24 2 22 23
M  V30 25 1 23 32
M  V30 26 1 24 23
M  V30 27 2 25 24
M  V30 28 1 26 22
M  V30 29 2 26 27
M  V30 30 1 27 31
M  V30 31 1 28 27
M  V30 32 2 29 28
M  V30 33 1 30 29
M  V30 34 1 30 26
M  V30 35 1 33 29
M  V30 36 1 34 25
M  V30 37 2 35 36
M  V30 38 1 35 39
M  V30 39 1 36 37
M  V30 40 1 37 38
M  V30 41 1 39 40
M  V30 42 2 39 38
M  V30 43 1 40 50
M  V30 44 1 41 40
M  V30 45 1 41 42
M  V30 46 1 41 53
M  V30 47 1 42 54
M  V30 48 1 43 42
M  V30 49 1 43 44
M  V30 50 1 43 59
M  V30 51 1 44 56
M  V30 52 1 45 44
M  V30 53 1 45 49
M  V30 54 1 45 47
M  V30 55 1 46 35
M  V30 56 1 48 45
M  V30 57 1 51 40
M  V30 58 1 52 41
M  V30 59 1 55 42
M  V30 60 1 57 44
M  V30 61 1 58 43
M  V30 62 1 14 28
M  V30 63 1 24 38
M  V30 64 1 5 60
M  V30 65 1 36 61
M  V30 END BOND
M  V30 END CTAB
M  END

$$$$
