
     RDKit          3D

  0  0  0  0  0  0  0  0  0  0999 V3000
M  V30 BEGIN CTAB
M  V30 COUNTS 84 90 0 0 0
M  V30 BEGIN ATOM
M  V30 1 C 9.0150 2.4948 1.7037 0
M  V30 2 C 8.4124 1.5692 0.8586 0
M  V30 3 C 9.1740 0.7491 0.0924 0
M  V30 4 C 10.5769 0.8201 0.1330 0
M  V30 5 C 11.1770 1.7401 0.9724 0
M  V30 6 C 10.3890 2.5635 1.7456 0
M  V30 7 C 8.8885 -0.2313 -0.8393 0
M  V30 8 C 10.1153 -0.7086 -1.3303 0
M  V30 9 N 11.1139 -0.0584 -0.7254 0
M  V30 10 C 10.1740 -1.6793 -2.3109 0
M  V30 11 C 9.0087 -2.1779 -2.8037 0
M  V30 12 C 7.8394 -1.7149 -2.3211 0
M  V30 13 C 7.7214 -0.7228 -1.3148 0
M  V30 14 H 6.9186 -2.1110 -2.7117 0
M  V30 15 H 12.1410 -0.2052 -0.8893 0
M  V30 16 H 9.0161 -2.9447 -3.5814 0
M  V30 17 H 7.3620 1.6083 0.8535 0
M  V30 18 H 12.2606 1.8066 1.0159 0
M  V30 19 H 10.8430 3.2817 2.4027 0
M  V30 20 H 8.4581 3.1704 2.3360 0
M  V30 21 S 1.1042 -0.1071 0.5406 0
M  V30 22 C 2.2994 -0.4331 -0.6362 0
M  V30 23 N 1.5356 -0.7259 -1.6850 0
M  V30 24 N 0.2846 -0.6938 -1.5638 0
M  V30 25 C -0.3022 -0.3803 -0.4349 0
M  V30 26 C 3.7656 -0.4044 -0.5402 0
M  V30 27 N 4.5532 -0.1217 0.4723 0
M  V30 28 N 5.7997 -0.1621 0.3200 0
M  V30 29 C 6.3716 -0.4731 -0.8019 0
M  V30 30 S 4.9073 -0.7394 -1.7511 0
M  V30 31 C -3.1769 0.5774 1.6665 0
M  V30 32 C -1.9120 0.3351 1.2418 0
M  V30 33 C -1.7003 -0.2200 -0.0292 0
M  V30 34 C -2.7588 -0.5274 -0.8495 0
M  V30 35 C -4.0400 -0.2796 -0.4228 0
M  V30 36 C -4.2496 0.2777 0.8467 0
M  V30 37 C -5.1671 -0.5111 -1.1941 0
M  V30 38 C -6.4338 -0.2161 -0.7499 0
M  V30 39 C -6.6205 0.3205 0.4850 0
M  V30 40 C -5.5169 0.5692 1.2891 0
M  V30 41 N -5.8076 1.1305 2.5711 0
M  V30 42 C -6.5054 2.2133 2.7298 0
M  V30 43 C -6.7379 2.6892 4.1329 0
M  V30 44 N -5.0780 -1.0281 -2.5040 0
M  V30 45 C -5.7436 -2.0609 -2.8631 0
M  V30 46 C -6.6429 -2.8052 -1.9677 0
M  V30 47 N -2.4993 -1.1640 -2.0858 0
M  V30 48 C -2.2216 -2.4443 -2.1443 0
M  V30 49 C -1.9600 -3.0157 -3.4799 0
M  V30 50 N -3.3149 1.1356 2.9768 0
M  V30 51 C -2.7177 2.1954 3.3800 0
M  V30 52 C -2.9511 2.6599 4.7705 0
M  V30 53 C -1.8060 3.0207 2.5501 0
M  V30 54 C -7.0815 3.0304 1.6575 0
M  V30 55 C -5.6685 -2.5730 -4.2762 0
M  V30 56 C -2.1884 -3.3456 -0.9737 0
M  V30 57 H -1.0285 0.5442 1.8402 0
M  V30 58 H -7.2923 -0.3772 -1.3619 0
M  V30 59 H -6.9991 4.0999 1.9739 0
M  V30 60 H -8.1514 2.7979 1.4424 0
M  V30 61 H -6.4938 2.9580 0.7109 0
M  V30 62 H -6.3211 1.9822 4.8763 0
M  V30 63 H -6.2933 3.6914 4.2851 0
M  V30 64 H -7.8439 2.7100 4.2571 0
M  V30 65 H -2.0692 2.9582 1.4820 0
M  V30 66 H -0.7545 2.7174 2.7325 0
M  V30 67 H -1.9195 4.1113 2.8093 0
M  V30 68 H -1.9439 2.6527 5.2804 0
M  V30 69 H -3.4193 3.6614 4.8116 0
M  V30 70 H -3.6273 1.9459 5.2760 0
M  V30 71 H -2.1721 -2.3183 -4.3057 0
M  V30 72 H -0.9502 -3.4694 -3.5597 0
M  V30 73 H -2.6766 -3.8753 -3.6041 0
M  V30 74 H -1.1974 -3.8862 -0.9970 0
M  V30 75 H -2.2815 -2.8336 -0.0105 0
M  V30 76 H -2.9434 -4.1778 -1.0753 0
M  V30 77 H -5.3615 -3.6343 -4.2019 0
M  V30 78 H -6.6870 -2.5333 -4.6858 0
M  V30 79 H -4.9692 -1.9615 -4.8732 0
M  V30 80 H -7.7069 -2.5602 -2.0970 0
M  V30 81 H -6.5354 -3.8960 -2.2661 0
M  V30 82 H -6.3086 -2.8055 -0.8896 0
M  V30 83 H 11.1372 -2.0280 -2.6718 0
M  V30 84 H -7.6139 0.5534 0.8586 0
M  V30 END ATOM
M  V30 BEGIN BOND
M  V30 0 1 1 20
M  V30 1 1 2 17
M  V30 2 2 2 1
M  V30 3 1 3 2
M  V30 4 2 4 3
M  V30 5 1 4 5
M  V30 6 2 5 6
M  V30 7 1 6 1
M  V30 8 1 6 19
M  V30 9 1 7 3
M  V30 10 1 8 9
M  V30 11 2 8 7
M  V30 12 1 9 4
M  V30 13 1 10 8
M  V30 14 2 11 10
M  V30 15 1 11 12
M  V30 16 2 12 13
M  V30 17 1 13 7
M  V30 18 1 14 12
M  V30 19 1 15 9
M  V30 20 1 16 11
M  V30 21 1 18 5
M  V30 22 1 21 25
M  V30 23 1 21 22
M  V30 24 2 22 23
M  V30 25 1 24 23
M  V30 26 2 25 24
M  V30 27 1 26 22
M  V30 28 1 26 30
M  V30 29 1 27 28
M  V30 30 2 27 26
M  V30 31 2 28 29
M  V30 32 1 29 30
M  V30 33 1 31 36
M  V30 34 1 31 50
M  V30 35 2 32 31
M  V30 36 2 33 34
M  V30 37 1 33 32
M  V30 38 1 34 35
M  V30 39 2 35 37
M  V30 40 1 35 36
M  V30 41 2 36 40
M  V30 42 1 37 38
M  V30 43 1 38 58
M  V30 44 2 38 39
M  V30 45 1 40 39
M  V30 46 1 40 41
M  V30 47 2 41 42
M  V30 48 1 42 54
M  V30 49 1 43 63
M  V30 50 1 43 42
M  V30 51 1 43 62
M  V30 52 2 44 45
M  V30 53 1 44 37
M  V30 54 1 45 55
M  V30 55 1 46 80
M  V30 56 1 46 45
M  V30 57 1 47 34
M  V30 58 2 48 47
M  V30 59 1 49 48
M  V30 60 1 49 73
M  V30 61 2 50 51
M  V30 62 1 51 53
M  V30 63 1 52 51
M  V30 64 1 52 69
M  V30 65 1 53 66
M  V30 66 1 53 67
M  V30 67 1 54 60
M  V30 68 1 54 59
M  V30 69 1 55 77
M  V30 70 1 55 79
M  V30 71 1 56 75
M  V30 72 1 56 48
M  V30 73 1 57 32
M  V30 74 1 61 54
M  V30 75 1 64 43
M  V30 76 1 65 53
M  V30 77 1 68 52
M  V30 78 1 70 52
M  V30 79 1 71 49
M  V30 80 1 72 49
M  V30 81 1 74 56
M  V30 82 1 76 56
M  V30 83 1 78 55
M  V30 84 1 81 46
M  V30 85 1 82 46
M  V30 86 1 13 29
M  V30 87 1 25 33
M  V30 88 1 10 83
M  V30 89 1 39 84
M  V30 END BOND
M  V30 END CTAB
M  END

$$$$
