
 OpenBabel03271908593D

 22 25  0  0  0  0  0  0  0  0999 V2000
    0.5514   -0.8926    4.4340 C   0  0  0  0  0  0  0  0  0  0  0  0
   -0.3918   -1.6003    3.7954 C   0  0  0  0  0  0  0  0  0  0  0  0
   -1.3878   -1.0269    2.5056 S   0  0  0  0  0  0  0  0  0  0  0  0
   -0.2004   -0.0213    1.6705 C   0  0  0  0  0  0  0  0  0  0  0  0
    0.7710    0.7260    2.3312 C   0  0  0  0  0  0  0  0  0  0  0  0
    0.9483    0.7581    4.0876 S   0  0  0  0  0  0  0  0  0  0  0  0
   -0.2841    0.0669   -0.0556 S   0  0  0  0  0  0  0  0  0  0  0  0
    1.0481    1.2198   -0.1046 C   0  0  0  0  0  0  0  0  0  0  0  0
    1.8348    1.7173    1.3924 S   0  0  0  0  0  0  0  0  0  0  0  0
    1.4956    1.7816   -1.3995 C   0  0  0  0  0  0  0  0  0  0  0  0
    0.6100    1.4086   -2.8763 S   0  0  0  0  0  0  0  0  0  0  0  0
    1.6650    2.4088   -3.8168 C   0  0  0  0  0  0  0  0  0  0  0  0
    2.7067    3.0668   -3.1674 C   0  0  0  0  0  0  0  0  0  0  0  0
    2.9030    2.8391   -1.4636 S   0  0  0  0  0  0  0  0  0  0  0  0
    1.3283    2.5764   -5.5410 S   0  0  0  0  0  0  0  0  0  0  0  0
    2.9542    2.6941   -6.1283 C   0  0  0  0  0  0  0  0  0  0  0  0
    3.9477    3.3382   -5.4988 C   0  0  0  0  0  0  0  0  0  0  0  0
    3.8208    4.1652   -3.9873 S   0  0  0  0  0  0  0  0  0  0  0  0
    4.9249    3.3912   -5.9702 H   0  0  0  0  0  0  0  0  0  0  0  0
    3.2605    1.8912   -7.7977 Br  0  0  0  0  0  0  0  0  0  0  0  0
   -0.5953   -2.6184    4.1147 H   0  0  0  0  0  0  0  0  0  0  0  0
    1.5078   -1.6630    5.8543 Br  0  0  0  0  0  0  0  0  0  0  0  0
  1 22  1  0  0  0  0
  2 21  1  0  0  0  0
  2  1  2  0  0  0  0
  3  2  1  0  0  0  0
  4  5  2  0  0  0  0
  4  3  1  0  0  0  0
  5  6  1  0  0  0  0
  6  1  1  0  0  0  0
  7  4  1  0  0  0  0
  8  7  1  0  0  0  0
  8  9  1  0  0  0  0
  9  5  1  0  0  0  0
 10  8  2  0  0  0  0
 11 10  1  0  0  0  0
 12 13  2  0  0  0  0
 12 11  1  0  0  0  0
 13 14  1  0  0  0  0
 14 10  1  0  0  0  0
 15 12  1  0  0  0  0
 16 17  2  0  0  0  0
 16 15  1  0  0  0  0
 17 18  1  0  0  0  0
 18 13  1  0  0  0  0
 19 17  1  0  0  0  0
 20 16  1  0  0  0  0
M  END
