52

C         -5.86590       -2.14700       -0.23810
C         -5.42860       -0.87670       -0.65020
C         -6.36190        0.06220       -0.93740
C         -7.70350       -0.22830       -0.82030
C         -8.14630       -1.46080       -0.41980
C         -7.20620       -2.41890       -0.13010
C         -6.22610        1.39010       -1.32980
C         -7.54920        1.85290       -1.42280
N         -8.40290        0.86530       -1.11570
C         -7.82930        3.15240       -1.74940
C         -6.78160        3.99680       -1.98700
C         -5.49370        3.54210       -1.90130
C         -5.17230        2.19900       -1.56750
H         -4.66030        4.18900       -2.08590
H         -9.45890        0.95120       -1.11160
H         -7.01170        5.03660       -2.24500
H         -4.38790       -0.77620       -0.64430
H         -9.21370       -1.66740       -0.33610
H         -7.57590       -3.38270        0.18190
H         -5.17620       -2.94350        0.00480
S          1.61830        1.29730       -1.81710
C          0.08150        0.60260       -2.08050
N          0.41590       -0.61400       -2.49710
N          1.62980       -0.93080       -2.58890
C          2.57930       -0.06080       -2.27350
C         -1.26640        1.17050       -1.90360
N         -1.61110        2.38170       -1.48900
N         -2.80310        2.70770       -1.39360
C         -3.79120        1.79790       -1.72310
S         -2.80900        0.50850       -2.15570
C          7.11550       -1.93940        7.36730
C          7.63960       -3.09040        7.00980
S          9.15390       -3.09000        6.04840
C          8.97580       -1.79460        4.81580
C          8.46200       -0.65600        5.16630
S          7.94290       -0.40660        6.87480
S          9.43770       -1.88690        3.10110
C          8.56870       -0.49580        2.41190
S          8.34710        0.52420        3.85200
C          8.19980       -0.29460        1.17440
S          7.31310        1.14720        0.52550
C          6.50890        0.43920       -0.91070
C          7.01950       -0.69110       -1.29150
S          8.38930       -1.26990       -0.30750
S          5.12920        1.11340       -1.82900
C          4.03400       -0.20780       -2.30290
C          4.53130       -1.36250       -2.69570
S          6.32700       -1.55750       -2.73680
H          3.92350       -2.20240       -2.99570
H          7.22020       -4.06540        7.25520
H         -8.84410        3.51620       -1.82160
H          6.21300       -1.92590        7.94050
