   47
Geometry Step: 1840
    C     -4.71377252      3.24156896     -0.21296990      4.11303426
    C     -4.56975136      1.86596552     -0.05128289      4.08063574
    C     -5.60111067      1.01207910     -0.48508188      4.03370666
    C     -6.77896929      1.59603732     -1.03118323      3.86501208
    C     -6.92485199      2.98159281     -1.20006956      4.16236135
    C     -5.87076758      3.79401825     -0.79029113      4.06800920
    C     -5.82626445     -0.42421374     -0.45828213      4.05572759
    C     -7.14925789     -0.62558865     -0.94906067      3.86638691
    N     -7.69094568      0.59412484     -1.31253116      5.17457395
    C     -7.75649235     -1.88909521     -1.00644527      4.16115785
    C     -7.01933668     -2.97602985     -0.54134190      4.07359964
    C     -5.70896404     -2.81165638     -0.07178439      4.12294966
    C     -5.07725296     -1.55494990     -0.04152195      3.97550475
    H     -5.14749320     -3.68160791      0.25644650      0.90744419
    H     -8.62543618      0.73463207     -1.67645648      0.78394317
    H     -7.45826422     -3.96967492     -0.55584517      0.91655920
    H     -3.67453785      1.47253459      0.42167869      0.91492544
    H     -7.83142488      3.40379754     -1.62518293      0.91731187
    H     -5.94854156      4.87187274     -0.90413287      0.92068969
    H     -3.91896660      3.90390353      0.11835944      0.91838979
    S      1.32144241     -1.92395524      1.65050445      6.04049258
    C      0.17275186     -1.13707841      0.54904396      3.83184051
    N      0.74777711     -0.30244559     -0.30673857      5.17650980
    N      2.10231126     -0.22293232     -0.16123788      5.17337451
    C      2.57855071     -0.99703304      0.80823315      3.81693638
    C     -1.24789511     -1.39548578      0.59793959      3.83963417
    N     -1.81752372     -2.22551528      1.46114059      5.18030406
    N     -3.17546458     -2.30857385      1.31529191      5.18656959
    C     -3.66219538     -1.52576987      0.36330731      3.81007798
    S     -2.40010791     -0.61559483     -0.49514708      6.02801588
    S     10.87958763      2.24836848     -1.45480735      6.08319552
    C      9.81149316      1.22295569     -0.46811131      3.96208380
    C     10.37432212      0.46050479      0.50317645      3.96160450
    S     12.13874495      0.54200594      0.71886178      6.08449713
    C     12.45785732      1.76593243     -0.62654140      4.01459898
    S      9.30234866     -0.56027587      1.48391430      6.02942897
    C      7.80347588     -0.05293641      0.64085950      3.98304317
    S      8.05083061      1.13618819     -0.67707659      6.02223974
    C      6.57646306     -0.53023624      0.97252825      3.98331472
    S      5.07366477     -0.03323074      0.14069186      6.01711592
    C      3.98873594     -1.05717718      1.12336441      3.97513037
    C      4.57008250     -1.81550977      2.09316520      4.10827717
    S      6.31740065     -1.71689238      2.28563236      5.99953901
    H     13.14503325      1.33399340     -1.36360027      0.92773423
    H     12.94311972      2.65594667     -0.20889146      0.92773814
    H     -8.76681073     -2.01134227     -1.38658555      0.91469131
    H      4.00640579     -2.47342125      2.74786127      0.89008886
