
     RDKit          3D

  0  0  0  0  0  0  0  0  0  0999 V3000
M  V30 BEGIN CTAB
M  V30 COUNTS 47 54 0 0 0
M  V30 BEGIN ATOM
M  V30 1 C -4.5128 3.1234 -0.9648 0
M  V30 2 C -4.5135 1.7983 -0.5515 0
M  V30 3 C -5.6667 1.0692 -0.5817 0
M  V30 4 C -6.8400 1.6786 -1.0271 0
M  V30 5 C -6.8052 2.9924 -1.4288 0
M  V30 6 C -5.6547 3.7159 -1.4018 0
M  V30 7 C -6.0096 -0.2244 -0.2220 0
M  V30 8 C -7.3712 -0.3752 -0.4415 0
M  V30 9 N -7.8182 0.7971 -0.9272 0
M  V30 10 C -7.9957 -1.5550 -0.1300 0
M  V30 11 C -7.2572 -2.5648 0.3918 0
M  V30 12 C -5.9163 -2.4584 0.6171 0
M  V30 13 C -5.2875 -1.2322 0.2859 0
M  V30 14 H -5.3606 -3.2896 1.0357 0
M  V30 15 H -8.8222 0.9465 -1.1802 0
M  V30 16 H -7.7484 -3.5167 0.6495 0
M  V30 17 H -3.6191 1.4345 -0.1762 0
M  V30 18 H -7.7370 3.4239 -1.7679 0
M  V30 19 H -5.6206 4.7605 -1.7216 0
M  V30 20 H -3.6068 3.6937 -0.9429 0
M  V30 21 S 1.5070 -2.1275 1.1936 0
M  V30 22 C 0.2408 -1.4541 0.2750 0
M  V30 23 N 0.9125 -0.8241 -0.6771 0
M  V30 24 N 2.1757 -0.8623 -0.6846 0
M  V30 25 C 2.8146 -1.5369 0.2672 0
M  V30 26 C -1.2201 -1.5067 0.4255 0
M  V30 27 N -1.9399 -2.1209 1.3558 0
M  V30 28 N -3.1831 -2.0663 1.3401 0
M  V30 29 C -3.8175 -1.3578 0.3425 0
M  V30 30 S -2.4661 -0.8239 -0.5037 0
M  V30 31 S 10.9934 2.6502 -0.8593 0
M  V30 32 C 10.0998 1.1416 -0.5048 0
M  V30 33 C 10.5691 0.4438 0.4641 0
M  V30 34 S 12.0426 1.2031 1.2220 0
M  V30 35 C 11.7974 2.9573 0.7340 0
M  V30 36 S 9.6901 -1.0702 0.8241 0
M  V30 37 C 8.1708 -0.7805 -0.0223 0
M  V30 38 S 8.6217 0.3950 -1.2665 0
M  V30 39 C 7.0184 -1.2837 0.1908 0
M  V30 40 S 5.4886 -0.9847 -0.6698 0
M  V30 41 C 4.2809 -1.6998 0.4328 0
M  V30 42 C 4.7989 -2.3858 1.4121 0
M  V30 43 S 6.5649 -2.4634 1.4367 0
M  V30 44 H 12.7679 3.4718 0.6262 0
M  V30 45 H 11.1095 3.3992 1.4498 0
M  V30 46 H -9.0661 -1.6404 -0.3131 0
M  V30 47 H 4.1915 -2.8909 2.1839 0
M  V30 END ATOM
M  V30 BEGIN BOND
M  V30 0 1 1 20
M  V30 1 1 2 17
M  V30 2 2 2 1
M  V30 3 1 3 2
M  V30 4 2 4 3
M  V30 5 1 4 5
M  V30 6 2 5 6
M  V30 7 1 6 1
M  V30 8 1 6 19
M  V30 9 1 7 3
M  V30 10 1 8 9
M  V30 11 2 8 7
M  V30 12 1 9 4
M  V30 13 1 10 8
M  V30 14 2 11 10
M  V30 15 1 11 12
M  V30 16 2 12 13
M  V30 17 1 13 7
M  V30 18 1 14 12
M  V30 19 1 15 9
M  V30 20 1 16 11
M  V30 21 1 18 5
M  V30 22 1 21 25
M  V30 23 1 21 22
M  V30 24 2 22 23
M  V30 25 1 24 23
M  V30 26 2 25 24
M  V30 27 1 26 22
M  V30 28 1 26 30
M  V30 29 1 27 28
M  V30 30 2 27 26
M  V30 31 2 28 29
M  V30 32 1 29 30
M  V30 33 1 31 35
M  V30 34 2 32 33
M  V30 35 1 32 31
M  V30 36 1 33 34
M  V30 37 1 34 35
M  V30 38 1 35 45
M  V30 39 1 35 44
M  V30 40 1 36 33
M  V30 41 1 37 38
M  V30 42 1 37 36
M  V30 43 1 38 32
M  V30 44 2 39 37
M  V30 45 1 40 39
M  V30 46 2 41 42
M  V30 47 1 41 40
M  V30 48 1 42 43
M  V30 49 1 43 39
M  V30 50 1 13 29
M  V30 51 1 25 41
M  V30 52 1 10 46
M  V30 53 1 42 47
M  V30 END BOND
M  V30 END CTAB
M  END

$$$$
