   49
Geometry Step: 2656
    C      5.05595372      1.40896929     -2.60991973      4.11577411
    C      4.51681616      0.77237678     -1.49497023      4.08035799
    C      5.38042680      0.12246789     -0.59274121      4.02996385
    C      6.77914084      0.15231381     -0.85422455      3.86745466
    C      7.32443777      0.78703020     -1.98073067      4.16550681
    C      6.44045112      1.41409890     -2.85508519      4.06793287
    C      5.20774616     -0.60354102      0.65610278      4.04271933
    C      6.52019704     -0.95658237      1.09000581      3.86852390
    N      7.44345470     -0.50996469      0.16323064      5.17521500
    C      6.77507496     -1.63174709      2.29269874      4.16126722
    C      5.67959779     -1.94855989      3.09321293      4.07270730
    C      4.37915513     -1.61377856      2.69605852      4.13638689
    C      4.10408269     -0.95945193      1.47970605      3.97604341
    H      3.54784645     -1.89151398      3.34007605      0.91526363
    H      8.44735905     -0.61955049      0.23742793      0.78458803
    H      5.83157276     -2.46477663      4.03673666      0.91709578
    H      3.44323794      0.77745957     -1.33095072      0.89611103
    H      8.39638008      0.79228576     -2.15934576      0.91859091
    H      6.82564743      1.91657310     -3.73844444      0.92237815
    H      4.39351583      1.91107810     -3.30974117      0.91985812
    S     -2.23844409      0.08947929     -0.14349910      6.03349822
    C     -3.51718120      0.24848676      1.08305002      3.81454497
    N     -3.04773220      0.15971016      2.32159545      5.19033699
    N     -1.69989950     -0.05506462      2.39452320      5.17856825
    C     -1.11296182     -0.11313158      1.20719438      3.83648088
    C      0.30314845     -0.33061463      1.01505813      3.83253527
    N      0.88289763     -0.39848265     -0.17592598      5.18559655
    N      2.23290134     -0.60985080     -0.10898481      5.18475186
    C      2.70484543     -0.69990494      1.12498361      3.80864895
    S      1.43192748     -0.53547959      2.36096984      6.04059947
    C     -7.59206532      1.47402636      0.46932508      4.07953586
    C     -6.99685252      0.64754839     -0.51847466      4.02489755
    C     -5.65530389      0.17281802     -0.35340122      3.95407837
    C     -4.92580963      0.58480833      0.81784987      4.00374328
    C     -5.56421931      1.37450252      1.77397455      4.07923448
    C     -6.88994490      1.81492616      1.60715553      4.09543060
    C     -5.12975301     -0.71463892     -1.33661184      4.15840961
    C     -5.87055608     -1.07459876     -2.44484358      4.05541508
    C     -7.17725222     -0.57805554     -2.64233697      4.23748679
    C     -7.72956291      0.26218387     -1.68536757      3.68195771
    O     -8.99490934      0.73800934     -1.82924370      6.46575638
    H     -7.74966927     -0.86505973     -3.52051546      0.91503970
    H     -5.00959613      1.67114127      2.66042621      0.90722609
    H     -7.34794812      2.43801029      2.37044658      0.91580427
    H     -5.44731770     -1.75549002     -3.17778880      0.91445166
    H     -4.14065656     -1.14243528     -1.21072695      0.90742225
    H     -9.38867821      0.40674614     -2.64738595      0.64602561
    H      7.78783946     -1.88693417      2.59158797      0.91502635
    H     -8.60944026      1.82255757      0.31726379      0.90375796
