49

C          5.39160        0.92530       -2.77160
C          4.81390        0.52570       -1.58610
C          5.61950       -0.01900       -0.61960
C          6.99450       -0.14840       -0.86010
C          7.54000        0.25710       -2.04560
C          6.74060        0.80010       -3.01840
C          5.41920       -0.49390        0.66200
C          6.66550       -0.89070        1.17370
N          7.57380       -0.66350        0.21880
C          6.77710       -1.37570        2.45980
C          5.67520       -1.48700        3.27790
C          4.48670       -1.10290        2.75910
C          4.32720       -0.60150        1.44220
H          3.60120       -1.17390        3.36300
H          8.60900       -0.87350        0.33030
H          5.70330       -1.85640        4.29170
H          3.78340        0.70250       -1.47520
H          8.61080        0.15690       -2.23720
H          7.20090        1.10300       -3.92830
H          4.77480        1.36430       -3.56840
S         -2.36770       -0.01230       -0.03210
C         -3.69770        0.30590        0.95790
N         -3.03910        0.44120        2.14760
N         -1.80170        0.31300        2.18940
C         -1.10340        0.04610        1.09700
C          0.32710       -0.13150        0.97660
N          0.99770       -0.39940       -0.13860
N          2.24370       -0.52680       -0.08750
C          2.94560       -0.41500        0.99370
S          1.59970       -0.07550        2.09750
C         -7.91020        0.72560        0.71950
C         -7.19650        0.44730       -0.42870
C         -5.79930        0.30600       -0.36140
C         -5.14630        0.44080        0.82160
C         -5.91750        0.72320        1.95730
C         -7.27160        0.86650        1.92870
C         -5.16390        0.02900       -1.55130
C         -5.89540       -0.09800       -2.73890
C         -7.26160        0.04670       -2.76660
C         -7.90510        0.32420       -1.57930
O         -9.28910        0.47700       -1.57220
H         -7.83520       -0.04950       -3.67890
H         -5.38280        0.82560        2.88020
H         -7.86130        1.08790        2.82790
H         -5.36110       -0.31620       -3.65460
H         -4.10100       -0.09080       -1.57040
H         -9.86060        0.39900       -2.37850
H          7.74490       -1.68030        2.85110
H         -8.99890        0.84220        0.70440
