
     RDKit          3D

  0  0  0  0  0  0  0  0  0  0999 V3000
M  V30 BEGIN CTAB
M  V30 COUNTS 49 55 0 0 0
M  V30 BEGIN ATOM
M  V30 1 C 5.3916 0.9253 -2.7716 0
M  V30 2 C 4.8139 0.5257 -1.5861 0
M  V30 3 C 5.6195 -0.0190 -0.6196 0
M  V30 4 C 6.9945 -0.1484 -0.8601 0
M  V30 5 C 7.5400 0.2571 -2.0456 0
M  V30 6 C 6.7406 0.8001 -3.0184 0
M  V30 7 C 5.4192 -0.4939 0.6620 0
M  V30 8 C 6.6655 -0.8907 1.1737 0
M  V30 9 N 7.5738 -0.6635 0.2188 0
M  V30 10 C 6.7771 -1.3757 2.4598 0
M  V30 11 C 5.6752 -1.4870 3.2779 0
M  V30 12 C 4.4867 -1.1029 2.7591 0
M  V30 13 C 4.3272 -0.6015 1.4422 0
M  V30 14 H 3.6012 -1.1739 3.3630 0
M  V30 15 H 8.6090 -0.8735 0.3303 0
M  V30 16 H 5.7033 -1.8564 4.2917 0
M  V30 17 H 3.7834 0.7025 -1.4752 0
M  V30 18 H 8.6108 0.1569 -2.2372 0
M  V30 19 H 7.2009 1.1030 -3.9283 0
M  V30 20 H 4.7748 1.3643 -3.5684 0
M  V30 21 S -2.3677 -0.0123 -0.0321 0
M  V30 22 C -3.6977 0.3059 0.9579 0
M  V30 23 N -3.0391 0.4412 2.1476 0
M  V30 24 N -1.8017 0.3130 2.1894 0
M  V30 25 C -1.1034 0.0461 1.0970 0
M  V30 26 C 0.3271 -0.1315 0.9766 0
M  V30 27 N 0.9977 -0.3994 -0.1386 0
M  V30 28 N 2.2437 -0.5268 -0.0875 0
M  V30 29 C 2.9456 -0.4150 0.9937 0
M  V30 30 S 1.5997 -0.0755 2.0975 0
M  V30 31 C -7.9102 0.7256 0.7195 0
M  V30 32 C -7.1965 0.4473 -0.4287 0
M  V30 33 C -5.7993 0.3060 -0.3614 0
M  V30 34 C -5.1463 0.4408 0.8216 0
M  V30 35 C -5.9175 0.7232 1.9573 0
M  V30 36 C -7.2716 0.8665 1.9287 0
M  V30 37 C -5.1639 0.0290 -1.5513 0
M  V30 38 C -5.8954 -0.0980 -2.7389 0
M  V30 39 C -7.2616 0.0467 -2.7666 0
M  V30 40 C -7.9051 0.3242 -1.5793 0
M  V30 41 O -9.2891 0.4770 -1.5722 0
M  V30 42 H -7.8352 -0.0495 -3.6789 0
M  V30 43 H -5.3828 0.8256 2.8802 0
M  V30 44 H -7.8613 1.0879 2.8279 0
M  V30 45 H -5.3611 -0.3162 -3.6546 0
M  V30 46 H -4.1010 -0.0908 -1.5704 0
M  V30 47 H -9.8606 0.3990 -2.3785 0
M  V30 48 H 7.7449 -1.6803 2.8511 0
M  V30 49 H -8.9989 0.8422 0.7044 0
M  V30 END ATOM
M  V30 BEGIN BOND
M  V30 0 1 1 20
M  V30 1 1 2 17
M  V30 2 2 2 1
M  V30 3 1 3 2
M  V30 4 2 4 3
M  V30 5 1 4 5
M  V30 6 2 5 6
M  V30 7 1 6 1
M  V30 8 1 6 19
M  V30 9 1 7 3
M  V30 10 1 8 9
M  V30 11 2 8 7
M  V30 12 1 9 4
M  V30 13 1 10 8
M  V30 14 2 11 10
M  V30 15 1 11 12
M  V30 16 2 12 13
M  V30 17 1 13 7
M  V30 18 1 14 12
M  V30 19 1 15 9
M  V30 20 1 16 11
M  V30 21 1 18 5
M  V30 22 1 21 22
M  V30 23 1 21 25
M  V30 24 2 22 23
M  V30 25 1 23 24
M  V30 26 2 25 24
M  V30 27 1 26 25
M  V30 28 1 26 30
M  V30 29 1 27 28
M  V30 30 2 27 26
M  V30 31 2 28 29
M  V30 32 1 29 30
M  V30 33 1 31 36
M  V30 34 2 32 31
M  V30 35 2 33 34
M  V30 36 1 33 32
M  V30 37 1 34 35
M  V30 38 1 35 43
M  V30 39 2 35 36
M  V30 40 1 36 44
M  V30 41 1 37 33
M  V30 42 2 38 37
M  V30 43 1 38 39
M  V30 44 2 39 40
M  V30 45 1 40 32
M  V30 46 1 40 41
M  V30 47 1 42 39
M  V30 48 1 45 38
M  V30 49 1 46 37
M  V30 50 1 47 41
M  V30 51 1 13 29
M  V30 52 1 22 34
M  V30 53 1 10 48
M  V30 54 1 31 49
M  V30 END BOND
M  V30 END CTAB
M  END

$$$$
