   45
Geometry Step: 1087
    C     -4.66992838     -2.13394931     -2.18721577      4.11364593
    C     -3.94349444     -1.34459613     -1.29934561      4.08208785
    C     -4.63452228     -0.50877083     -0.40127776      4.03366471
    C     -6.05678762     -0.48852914     -0.45505167      3.86575429
    C     -6.79126786     -1.28735415     -1.34478659      4.16321485
    C     -6.07556276     -2.11309487     -2.20763872      4.06732321
    C     -4.24626213      0.44979530      0.62230870      4.04883450
    C     -5.46018301      1.01634643      1.11211292      3.86548311
    N     -6.53143323      0.42663747      0.46800765      5.17430955
    C     -5.49602804      2.02885504      2.08246504      4.16114967
    C     -4.27629253      2.49641550      2.56606011      4.07011355
    C     -3.06697005      1.95520363      2.11055517      4.13560250
    C     -3.01710328      0.92104224      1.15710239      3.99236504
    H     -2.13411663      2.32716122      2.52549088      0.91645339
    H     -7.50564642      0.65647104      0.62139945      0.78381741
    H     -4.25827199      3.28542833      3.31228354      0.91647713
    H     -2.85906694     -1.37885691     -1.31398132      0.90591622
    H     -7.87732660     -1.25601708     -1.36270566      0.91745963
    H     -6.60974084     -2.74535399     -2.91174437      0.92099262
    H     -4.14033853     -2.78092394     -2.88099682      0.91891786
    C      4.05285217     -0.25152860     -0.06313502      3.84108410
    N      3.84404017      1.00882733      0.35155364      5.15816803
    O      2.50514014      1.13833957      0.54818497      6.06724072
    C      1.87896907     -0.01682444      0.26377201      3.77369438
    C      2.81105347     -0.95304256     -0.13525767      4.26812237
    C      0.43172939     -0.06822244      0.41667496      3.88223206
    N     -0.26910088     -1.18213579      0.15592863      5.17483898
    O     -1.57287133     -0.88330302      0.39694869      6.05561726
    C     -1.69763712      0.39093648      0.79714581      3.75849502
    C     -0.44286433      0.97190097      0.84228433      4.26839082
    H     -0.18594193      1.98564044      1.11212651      0.88134076
    H      2.63208292     -1.97690303     -0.43106365      0.88303119
    C      5.37966410     -0.75609002     -0.37450005      4.03123483
    S      5.63451924     -2.39805815     -0.91255874      5.93518494
    C      7.35311303     -2.20779659     -1.05464497      4.17937062
    C      7.73146998     -0.91517479     -0.69875221      3.85375373
    C      6.61187567     -0.08411238     -0.31057677      3.87595983
    N      9.02615851     -0.42751502     -0.69919292      5.27054912
    C      9.15374448      0.83349396     -0.32374767      3.92414676
    C      8.03982271      1.65917935      0.06209890      3.93592465
    N      6.78939679      1.22763033      0.07471366      5.24647731
    H     10.16582549      1.25866304     -0.31047032      0.94480347
    H      8.22119571      2.69889112      0.36274055      0.94282409
    H     -6.43888105      2.43796611      2.43415419      0.91425766
    H      7.99488715     -3.01647175     -1.37996842      0.87967431
