45

C         -4.85530       -2.15500       -2.09950
C         -4.06920       -1.36660       -1.24250
C         -4.72510       -0.52090       -0.39310
C         -6.11820       -0.45010       -0.39010
C         -6.85270       -1.24340       -1.25010
C         -6.22430       -2.10590       -2.11460
C         -4.27170        0.40080        0.55210
C         -5.42990        0.98940        1.07400
N         -6.51790        0.46410        0.49770
C         -5.34070        1.98840        2.02590
C         -4.11590        2.38580        2.44480
C         -2.99570        1.80690        1.93690
C         -3.03240        0.77480        0.95850
H         -2.00050        2.09760        2.25400
H         -7.50900        0.74120        0.72300
H         -3.97220        3.17460        3.19570
H         -3.03150       -1.47000       -1.35300
H         -7.92880       -1.17340       -1.23050
H         -6.82260       -2.71510       -2.77510
H         -4.38250       -2.84340       -2.79180
C          4.09790       -0.03770       -0.00940
N          3.82100        1.18860        0.43510
O          2.52750        1.32290        0.60680
C          1.89760        0.21660        0.29160
C          2.88150       -0.67560       -0.10790
C          0.46380       -0.00970        0.35440
N         -0.16540       -1.16200        0.02340
O         -1.44480       -1.01000        0.19990
C         -1.80090        0.12690        0.62170
C         -0.55820        0.82260        0.73730
H         -0.41790        1.82960        1.06320
H          2.64920       -1.68170       -0.42780
C          5.37670       -0.67180       -0.34980
S          5.64820       -2.25480       -0.91520
C          7.34290       -2.21300       -1.06610
C          7.65520       -0.93720       -0.66220
C          6.64720       -0.14560       -0.29450
N          8.93140       -0.41980       -0.61040
C          9.17990        0.83660       -0.20700
C          8.14970        1.64040        0.16710
N          6.91680        1.14110        0.11720
H         10.20720        1.21080       -0.17970
H          8.37390        2.64970        0.48880
H         -6.22160        2.45730        2.44160
H          8.03720       -3.00380       -1.40290
