
     RDKit          3D

  0  0  0  0  0  0  0  0  0  0999 V3000
M  V30 BEGIN CTAB
M  V30 COUNTS 45 51 0 0 0
M  V30 BEGIN ATOM
M  V30 1 C -4.8553 -2.1550 -2.0995 0
M  V30 2 C -4.0692 -1.3666 -1.2425 0
M  V30 3 C -4.7251 -0.5209 -0.3931 0
M  V30 4 C -6.1182 -0.4501 -0.3901 0
M  V30 5 C -6.8527 -1.2434 -1.2501 0
M  V30 6 C -6.2243 -2.1059 -2.1146 0
M  V30 7 C -4.2717 0.4008 0.5521 0
M  V30 8 C -5.4299 0.9894 1.0740 0
M  V30 9 N -6.5179 0.4641 0.4977 0
M  V30 10 C -5.3407 1.9884 2.0259 0
M  V30 11 C -4.1159 2.3858 2.4448 0
M  V30 12 C -2.9957 1.8069 1.9369 0
M  V30 13 C -3.0324 0.7748 0.9585 0
M  V30 14 H -2.0005 2.0976 2.2540 0
M  V30 15 H -7.5090 0.7412 0.7230 0
M  V30 16 H -3.9722 3.1746 3.1957 0
M  V30 17 H -3.0315 -1.4700 -1.3530 0
M  V30 18 H -7.9288 -1.1734 -1.2305 0
M  V30 19 H -6.8226 -2.7151 -2.7751 0
M  V30 20 H -4.3825 -2.8434 -2.7918 0
M  V30 21 C 4.0979 -0.0377 -0.0094 0
M  V30 22 N 3.8210 1.1886 0.4351 0
M  V30 23 O 2.5275 1.3229 0.6068 0
M  V30 24 C 1.8976 0.2166 0.2916 0
M  V30 25 C 2.8815 -0.6756 -0.1079 0
M  V30 26 C 0.4638 -0.0097 0.3544 0
M  V30 27 N -0.1654 -1.1620 0.0234 0
M  V30 28 O -1.4448 -1.0100 0.1999 0
M  V30 29 C -1.8009 0.1269 0.6217 0
M  V30 30 C -0.5582 0.8226 0.7373 0
M  V30 31 H -0.4179 1.8296 1.0632 0
M  V30 32 H 2.6492 -1.6817 -0.4278 0
M  V30 33 C 5.3767 -0.6718 -0.3498 0
M  V30 34 S 5.6482 -2.2548 -0.9152 0
M  V30 35 C 7.3429 -2.2130 -1.0661 0
M  V30 36 C 7.6552 -0.9372 -0.6622 0
M  V30 37 C 6.6472 -0.1456 -0.2945 0
M  V30 38 N 8.9314 -0.4198 -0.6104 0
M  V30 39 C 9.1799 0.8366 -0.2070 0
M  V30 40 C 8.1497 1.6404 0.1671 0
M  V30 41 N 6.9168 1.1411 0.1172 0
M  V30 42 H 10.2072 1.2108 -0.1797 0
M  V30 43 H 8.3739 2.6497 0.4888 0
M  V30 44 H -6.2216 2.4573 2.4416 0
M  V30 45 H 8.0372 -3.0038 -1.4029 0
M  V30 END ATOM
M  V30 BEGIN BOND
M  V30 0 1 1 20
M  V30 1 1 2 17
M  V30 2 2 2 1
M  V30 3 1 3 2
M  V30 4 2 4 3
M  V30 5 1 4 5
M  V30 6 2 5 6
M  V30 7 1 6 1
M  V30 8 1 6 19
M  V30 9 1 7 3
M  V30 10 1 8 9
M  V30 11 2 8 7
M  V30 12 1 9 4
M  V30 13 1 10 8
M  V30 14 2 11 10
M  V30 15 1 11 12
M  V30 16 2 12 13
M  V30 17 1 13 7
M  V30 18 1 14 12
M  V30 19 1 15 9
M  V30 20 1 16 11
M  V30 21 1 18 5
M  V30 22 2 21 22
M  V30 23 1 23 22
M  V30 24 1 24 23
M  V30 25 1 25 21
M  V30 26 2 25 24
M  V30 27 1 26 24
M  V30 28 1 26 30
M  V30 29 2 27 26
M  V30 30 1 28 27
M  V30 31 1 28 29
M  V30 32 2 29 30
M  V30 33 1 30 31
M  V30 34 1 32 25
M  V30 35 2 33 37
M  V30 36 1 34 33
M  V30 37 1 35 34
M  V30 38 2 35 36
M  V30 39 1 36 38
M  V30 40 1 36 37
M  V30 41 1 37 41
M  V30 42 2 38 39
M  V30 43 1 39 42
M  V30 44 1 39 40
M  V30 45 1 40 43
M  V30 46 2 41 40
M  V30 47 1 13 29
M  V30 48 1 21 33
M  V30 49 1 10 44
M  V30 50 1 35 45
M  V30 END BOND
M  V30 END CTAB
M  END

$$$$
