
 OpenBabel08201815583D

 19 20  0  0  0  0  0  0  0  0999 V2000
    0.9649    2.2006    5.2614 C   0  0  0  0  0  0  0  0  0  0  0  0
    1.5604    1.5934    4.1073 C   0  0  0  0  0  0  0  0  0  0  0  0
    0.6933    1.2847    3.0132 C   0  0  0  0  0  0  0  0  0  0  0  0
   -0.6918    1.5871    3.1158 C   0  0  0  0  0  0  0  0  0  0  0  0
   -1.2309    2.1782    4.2569 C   0  0  0  0  0  0  0  0  0  0  0  0
   -0.4053    2.4834    5.3250 C   0  0  0  0  0  0  0  0  0  0  0  0
    1.2429    0.6832    1.8524 C   0  0  0  0  0  0  0  0  0  0  0  0
    2.5963    0.3808    1.7359 C   0  0  0  0  0  0  0  0  0  0  0  0
    3.4496    0.6716    2.7825 C   0  0  0  0  0  0  0  0  0  0  0  0
    2.9434    1.2646    3.9424 C   0  0  0  0  0  0  0  0  0  0  0  0
    3.8448    1.5261    4.9417 O   0  0  0  0  0  0  0  0  0  0  0  0
    4.5041    0.4323    2.6832 H   0  0  0  0  0  0  0  0  0  0  0  0
   -2.2922    2.4045    4.3230 H   0  0  0  0  0  0  0  0  0  0  0  0
   -0.8377    2.9447    6.2103 H   0  0  0  0  0  0  0  0  0  0  0  0
    2.9757   -0.0804    0.8278 H   0  0  0  0  0  0  0  0  0  0  0  0
    1.9249    2.6990    6.8372 Br  0  0  0  0  0  0  0  0  0  0  0  0
   -1.9432    1.2199    1.7188 Br  0  0  0  0  0  0  0  0  0  0  0  0
    0.6142    0.4340    0.9999 H   0  0  0  0  0  0  0  0  0  0  0  0
    4.7330    1.2445    4.6717 H   0  0  0  0  0  0  0  0  0  0  0  0
  1  6  1  0  0  0  0
  1 16  1  0  0  0  0
  2  1  2  0  0  0  0
  3  4  2  0  0  0  0
  3  2  1  0  0  0  0
  4  5  1  0  0  0  0
  5 13  1  0  0  0  0
  5  6  2  0  0  0  0
  6 14  1  0  0  0  0
  7  3  1  0  0  0  0
  8  7  2  0  0  0  0
  8  9  1  0  0  0  0
  9 10  2  0  0  0  0
 10  2  1  0  0  0  0
 10 11  1  0  0  0  0
 12  9  1  0  0  0  0
 15  8  1  0  0  0  0
 17  4  1  0  0  0  0
 18  7  1  0  0  0  0
 19 11  1  0  0  0  0
M  END
