
     RDKit          3D

  0  0  0  0  0  0  0  0  0  0999 V3000
M  V30 BEGIN CTAB
M  V30 COUNTS 53 59 0 0 0
M  V30 BEGIN ATOM
M  V30 1 C -5.7868 -1.1467 -2.0770 0
M  V30 2 C -4.8538 -0.7474 -1.1272 0
M  V30 3 C -5.1137 -1.0224 0.1889 0
M  V30 4 C -6.2930 -1.6952 0.5450 0
M  V30 5 C -7.1882 -2.0731 -0.4187 0
M  V30 6 C -6.9359 -1.7973 -1.7410 0
M  V30 7 C -4.4063 -0.8107 1.3700 0
M  V30 8 C -5.1644 -1.3675 2.4055 0
M  V30 9 N -6.2711 -1.8758 1.8711 0
M  V30 10 C -4.7310 -1.3834 3.7003 0
M  V30 11 C -3.5085 -0.8268 3.9670 0
M  V30 12 C -2.7664 -0.2771 2.9668 0
M  V30 13 C -3.1983 -0.2441 1.6066 0
M  V30 14 H -1.8012 0.1653 3.1555 0
M  V30 15 H -7.0375 -2.3596 2.4114 0
M  V30 16 H -3.1531 -0.8370 4.9893 0
M  V30 17 H -3.9669 -0.2927 -1.4850 0
M  V30 18 H -8.0920 -2.5866 -0.1467 0
M  V30 19 H -7.6378 -2.0909 -2.5048 0
M  V30 20 H -5.5944 -0.9354 -3.1037 0
M  V30 21 O 1.8559 0.8943 0.1293 0
M  V30 22 C 0.8808 1.5423 -0.4127 0
M  V30 23 C 1.4193 2.4370 -1.2992 0
M  V30 24 C 2.7765 2.2605 -1.2307 0
M  V30 25 C 3.0467 1.3040 -0.3468 0
M  V30 26 C -0.5464 1.3295 -0.1066 0
M  V30 27 C -1.5690 2.0326 -0.6973 0
M  V30 28 C -2.7367 1.5451 -0.1496 0
M  V30 29 C -2.4127 0.5844 0.7352 0
M  V30 30 O -1.0631 0.4923 0.7239 0
M  V30 31 H -3.7023 1.9540 -0.4418 0
M  V30 32 H -1.4304 2.8087 -1.4426 0
M  V30 33 H 3.4556 2.8640 -1.8030 0
M  V30 34 H 0.8705 3.1199 -1.9061 0
M  V30 35 C 4.2515 0.7006 0.1626 0
M  V30 36 C 5.3540 0.3075 -0.5458 0
M  V30 37 C 6.5567 -0.0365 0.0580 0
M  V30 38 C 6.6670 0.0076 1.4433 0
M  V30 39 C 5.5662 0.3921 2.1596 0
M  V30 40 C 4.3874 0.7326 1.5886 0
M  V30 41 C 7.6771 -0.4845 -0.5980 0
M  V30 42 C 7.5859 -0.6050 -1.9665 0
M  V30 43 C 6.4149 -0.2861 -2.6104 0
M  V30 44 C 5.3024 0.1648 -1.9138 0
M  V30 45 O 4.1472 0.4512 -2.6182 0
M  V30 46 H 6.3195 -0.3755 -3.6820 0
M  V30 47 H 5.6403 0.4273 3.2555 0
M  V30 48 H 3.5117 1.0340 2.1217 0
M  V30 49 H 8.4243 -0.9507 -2.5706 0
M  V30 50 H 8.6080 -0.7436 -0.1188 0
M  V30 51 H 4.0135 0.3799 -3.6026 0
M  V30 52 H -5.3537 -1.8308 4.4870 0
M  V30 53 H 7.5818 -0.2495 1.9504 0
M  V30 END ATOM
M  V30 BEGIN BOND
M  V30 0 1 1 20
M  V30 1 1 2 17
M  V30 2 2 2 1
M  V30 3 1 3 2
M  V30 4 2 4 3
M  V30 5 1 4 5
M  V30 6 2 5 6
M  V30 7 1 6 1
M  V30 8 1 6 19
M  V30 9 1 7 3
M  V30 10 1 8 9
M  V30 11 2 8 7
M  V30 12 1 9 4
M  V30 13 1 10 8
M  V30 14 2 11 10
M  V30 15 1 11 12
M  V30 16 2 12 13
M  V30 17 1 13 7
M  V30 18 1 14 12
M  V30 19 1 15 9
M  V30 20 1 16 11
M  V30 21 1 18 5
M  V30 22 1 21 22
M  V30 23 1 21 25
M  V30 24 2 22 23
M  V30 25 1 23 34
M  V30 26 1 23 24
M  V30 27 1 24 33
M  V30 28 2 25 24
M  V30 29 1 26 22
M  V30 30 2 27 26
M  V30 31 1 27 32
M  V30 32 1 28 27
M  V30 33 2 29 28
M  V30 34 1 29 30
M  V30 35 1 30 26
M  V30 36 1 31 28
M  V30 37 1 35 40
M  V30 38 2 36 35
M  V30 39 2 37 38
M  V30 40 1 37 36
M  V30 41 1 38 39
M  V30 42 1 39 47
M  V30 43 2 39 40
M  V30 44 1 40 48
M  V30 45 1 41 37
M  V30 46 2 42 41
M  V30 47 1 42 43
M  V30 48 2 43 44
M  V30 49 1 44 36
M  V30 50 1 44 45
M  V30 51 1 46 43
M  V30 52 1 49 42
M  V30 53 1 50 41
M  V30 54 1 51 45
M  V30 55 1 13 29
M  V30 56 1 25 35
M  V30 57 1 10 52
M  V30 58 1 38 53
M  V30 END BOND
M  V30 END CTAB
M  END

$$$$
