   82
Geometry Step: 3212
    C      9.48161473     -1.08570392      3.13582741      4.08311417
    C      8.29317803     -0.96882339      2.45765498      4.11889803
    C      8.27678395     -0.94818910      1.02577539      3.82909802
    C      9.52652765     -1.04131816      0.31133911      3.82375781
    C     10.74302248     -1.16279930      1.05843562      4.11852138
    C     10.71451462     -1.18513904      2.43103824      4.08195566
    N      7.09496941     -0.84083783      0.36876407      5.30884691
    C      7.12458889     -0.83078383     -0.98400136      3.84512376
    C      8.38385063     -0.89047854     -1.69697124      3.82303024
    N      9.56661010     -0.99991484     -1.04277552      5.31195946
    C      8.38289460     -0.82538466     -3.12706479      4.13469244
    C      7.19660603     -0.70095924     -3.80822895      4.07833201
    C      5.95951150     -0.65163448     -3.11681173      4.11752622
    C      5.88827754     -0.72620394     -1.73416895      3.98134008
    H      5.04328622     -0.57665693     -3.69674194      0.91390629
    H      7.19327903     -0.64914392     -4.89415305      0.91665491
    H      9.32943332     -0.87425606     -3.65855006      0.90416838
    H     11.63910425     -1.27766004      2.99539911      0.91713446
    H      7.35179215     -0.89465745      2.99666952      0.90729292
    H      9.49136050     -1.10388563      4.22275195      0.91714833
    S      0.63116319      1.38682878     -2.52747702      5.99532569
    C      0.96956596      0.38916082     -1.11484019      3.96471639
    C     -0.16771175      0.24179689     -0.34597257      4.16109172
    C     -1.31798685      0.92140168     -0.86565697      3.94435026
    C     -1.03867027      1.57823367     -2.04855346      4.13006290
    C      2.28220422     -0.16029016     -0.85827135      3.94150483
    C      3.42264272     -0.04961523     -1.62695380      4.18243233
    C      4.57329244     -0.70106969     -1.06412627      3.96975811
    C      4.28326432     -1.31725162      0.14013717      4.12083360
    S      2.61201726     -1.10469934      0.59495827      5.98908391
    H      3.44471601      0.50875410     -2.55750935      0.90155383
    H     -0.18025839     -0.35853817      0.55711430      0.90000025
    H      4.96100695     -1.89997548      0.74971636      0.88407323
    H     -1.72612330      2.17213720     -2.63629162      0.88725135
    C     -2.64210107      0.91836106     -0.19135310      4.06737562
    C     -2.71091629      0.95996026      1.22287521      3.88599624
    C     -3.96825096      0.90380880      1.87946006      3.87682379
    C     -5.14486214      0.81131637      1.11716968      4.21374165
    C     -5.09420283      0.78878593     -0.28511629      3.87264751
    C     -3.83659693      0.80450712     -0.94296077      3.89315465
    N     -6.30699654      0.63357791     -1.01533306      5.32427394
    C     -6.69380457      1.49865065     -1.89598498      3.74188449
    C     -7.94656222      1.22484765     -2.69004449      4.28158216
    N     -3.77953366      0.79479577     -2.36706924      5.32085473
    C     -4.18217542     -0.22134001     -3.05773516      3.74035959
    C     -4.67872424     -1.51693679     -2.45132735      4.28662958
    N     -1.53565983      1.19567523      1.97896712      5.28734036
    C     -1.13042457      0.41996689      2.92912782      3.75082134
    C     -1.73747483     -0.92798210      3.26986719      4.28536568
    N     -4.01871050      1.08665100      3.28613073      5.30029677
    C     -4.69253537      0.31459762      4.07458767      3.76287612
    C     -5.42315424     -0.94648986      3.64911698      4.29263081
    C     -5.97778080      2.79861451     -2.19430419      4.28625672
    C     -4.16841993     -0.13712935     -4.56270239      4.28079343
    C      0.09134699      0.81091776      3.72336136      4.27900238
    C     -4.74085713      0.63760165      5.54817857      4.28019101
    H     -5.27665467      2.66265271     -3.01922368      0.89287900
    H     -5.40616203      3.13367001     -1.33238092      0.89750671
    H     -6.68405955      3.57528567     -2.48117221      0.91995683
    H     -7.72876804      1.23084087     -3.75842649      0.91324959
    H     -8.37681567      0.26193215     -2.43005558      0.90548611
    H     -8.69385516      1.99877290     -2.51420821      0.90981419
    H     -4.29238383     -0.16602384      6.13363438      0.91507473
    H     -4.21180745      1.56074309      5.76503766      0.90058967
    H     -5.77201561      0.73893592      5.88690469      0.91097190
    H     -6.49377240     -0.76101194      3.56104413      0.90201513
    H     -5.29145199     -1.73013191      4.39347007      0.91599056
    H     -5.06427692     -1.30718044      2.68848040      0.90079521
    H     -0.95719776     -1.68563876      3.33707422      0.91649155
    H     -2.23945439     -0.89253305      4.23680847      0.90350905
    H     -2.46290130     -1.23568584      2.52118719      0.90612829
    H     -0.12098900      0.79683907      4.79218755      0.91345973
    H      0.43662432      1.80309404      3.44892240      0.89994617
    H      0.90273439      0.10255230      3.54936737      0.91297842
    H     -5.16581424     -0.31825610     -4.96415722      0.91283700
    H     -3.51206820     -0.89747205     -4.98609508      0.90837320
    H     -3.83069409      0.83872124     -4.89998166      0.90591620
    H     -4.17009962     -1.72287532     -1.51219900      0.90150629
    H     -4.52976054     -2.35313562     -3.13083039      0.92050706
    H     -5.74551547     -1.44247028     -2.23373764      0.88958852
    H     11.68585222     -1.23693778      0.52224058      0.90576892
    H     -6.11042410      0.82021174      1.61353632      0.90322151
