44

C         -5.21750        2.55790       -1.08310
C         -4.19800        1.67170       -0.70480
C         -4.52100        0.38780       -0.43970
C         -5.83970       -0.02650       -0.54920
C         -6.82980        0.85390       -0.92180
C         -6.51100        2.14710       -1.18730
C         -3.78480       -0.70470       -0.07950
C         -4.67220       -1.79320        0.02220
N         -5.88040       -1.33400       -0.26560
C         -4.25530       -3.06190        0.33940
C         -2.91840       -3.29180        0.57100
C         -2.07410       -2.24240        0.47570
C         -2.46190       -0.92090        0.15390
H         -1.00950       -2.43990        0.66710
H         -6.76470       -1.92410       -0.27090
H         -2.55420       -4.29110        0.82330
H         -3.24560        2.10730       -0.69750
H         -7.85110        0.48030       -0.99260
H         -7.28500        2.82330       -1.47460
H         -5.01080        3.59910       -1.30530
C          4.31350        0.89710       -0.04310
N          4.00560        2.19600        0.21050
O          2.71870        2.33180        0.33370
C          2.11480        1.17870        0.17620
C          3.10320        0.24800       -0.06470
C          0.67500        0.97010        0.25020
N         -0.26610        1.90090        0.48740
O         -1.43910        1.34070        0.47870
C         -1.43470        0.09120        0.25740
C         -0.04140       -0.19220        0.09980
H          0.34140       -1.17690       -0.10670
H          2.88760       -0.79570       -0.23270
N          6.80930        2.38100        0.02710
C          6.76690        1.07170       -0.20120
C          7.94510        0.44680       -0.40260
N          9.04110        1.21730       -0.35080
S          8.44590        2.75090       -0.03360
C          7.98000       -0.93560       -0.64990
C          6.82070       -1.66420       -0.68940
N          5.66010       -1.02830       -0.48750
C          5.60240        0.28920       -0.24990
H          6.84320       -2.75330       -0.88380
H         -4.93030       -3.90190        0.41820
H          8.92220       -1.46120       -0.81550
