
     RDKit          3D

  0  0  0  0  0  0  0  0  0  0999 V3000
M  V30 BEGIN CTAB
M  V30 COUNTS 44 50 0 0 0
M  V30 BEGIN ATOM
M  V30 1 C -5.2175 2.5579 -1.0831 0
M  V30 2 C -4.1980 1.6717 -0.7048 0
M  V30 3 C -4.5210 0.3878 -0.4397 0
M  V30 4 C -5.8397 -0.0265 -0.5492 0
M  V30 5 C -6.8298 0.8539 -0.9218 0
M  V30 6 C -6.5110 2.1471 -1.1873 0
M  V30 7 C -3.7848 -0.7047 -0.0795 0
M  V30 8 C -4.6722 -1.7932 0.0222 0
M  V30 9 N -5.8804 -1.3340 -0.2656 0
M  V30 10 C -4.2553 -3.0619 0.3394 0
M  V30 11 C -2.9184 -3.2918 0.5710 0
M  V30 12 C -2.0741 -2.2424 0.4757 0
M  V30 13 C -2.4619 -0.9209 0.1539 0
M  V30 14 H -1.0095 -2.4399 0.6671 0
M  V30 15 H -6.7647 -1.9241 -0.2709 0
M  V30 16 H -2.5542 -4.2911 0.8233 0
M  V30 17 H -3.2456 2.1073 -0.6975 0
M  V30 18 H -7.8511 0.4803 -0.9926 0
M  V30 19 H -7.2850 2.8233 -1.4746 0
M  V30 20 H -5.0108 3.5991 -1.3053 0
M  V30 21 C 4.3135 0.8971 -0.0431 0
M  V30 22 N 4.0056 2.1960 0.2105 0
M  V30 23 O 2.7187 2.3318 0.3337 0
M  V30 24 C 2.1148 1.1787 0.1762 0
M  V30 25 C 3.1032 0.2480 -0.0647 0
M  V30 26 C 0.6750 0.9701 0.2502 0
M  V30 27 N -0.2661 1.9009 0.4874 0
M  V30 28 O -1.4391 1.3407 0.4787 0
M  V30 29 C -1.4347 0.0912 0.2574 0
M  V30 30 C -0.0414 -0.1922 0.0998 0
M  V30 31 H 0.3414 -1.1769 -0.1067 0
M  V30 32 H 2.8876 -0.7957 -0.2327 0
M  V30 33 N 6.8093 2.3810 0.0271 0
M  V30 34 C 6.7669 1.0717 -0.2012 0
M  V30 35 C 7.9451 0.4468 -0.4026 0
M  V30 36 N 9.0411 1.2173 -0.3508 0
M  V30 37 S 8.4459 2.7509 -0.0336 0
M  V30 38 C 7.9800 -0.9356 -0.6499 0
M  V30 39 C 6.8207 -1.6642 -0.6894 0
M  V30 40 N 5.6601 -1.0283 -0.4875 0
M  V30 41 C 5.6024 0.2892 -0.2499 0
M  V30 42 H 6.8432 -2.7533 -0.8838 0
M  V30 43 H -4.9303 -3.9019 0.4182 0
M  V30 44 H 8.9222 -1.4612 -0.8155 0
M  V30 END ATOM
M  V30 BEGIN BOND
M  V30 0 1 1 20
M  V30 1 1 2 17
M  V30 2 2 2 1
M  V30 3 1 3 2
M  V30 4 2 4 3
M  V30 5 1 4 5
M  V30 6 2 5 6
M  V30 7 1 6 1
M  V30 8 1 6 19
M  V30 9 1 7 3
M  V30 10 1 8 9
M  V30 11 2 8 7
M  V30 12 1 9 4
M  V30 13 1 10 8
M  V30 14 2 11 10
M  V30 15 1 11 12
M  V30 16 2 12 13
M  V30 17 1 13 7
M  V30 18 1 14 12
M  V30 19 1 15 9
M  V30 20 1 16 11
M  V30 21 1 18 5
M  V30 22 2 21 22
M  V30 23 1 23 22
M  V30 24 1 24 23
M  V30 25 1 25 21
M  V30 26 2 25 24
M  V30 27 1 26 24
M  V30 28 1 26 30
M  V30 29 2 27 26
M  V30 30 1 28 27
M  V30 31 1 28 29
M  V30 32 2 29 30
M  V30 33 1 30 31
M  V30 34 1 32 25
M  V30 35 2 34 33
M  V30 36 2 35 36
M  V30 37 1 35 34
M  V30 38 1 36 37
M  V30 39 1 37 33
M  V30 40 1 38 35
M  V30 41 2 39 38
M  V30 42 1 39 40
M  V30 43 2 40 41
M  V30 44 1 41 34
M  V30 45 1 42 39
M  V30 46 1 13 29
M  V30 47 1 21 41
M  V30 48 1 10 43
M  V30 49 1 38 44
M  V30 END BOND
M  V30 END CTAB
M  END

$$$$
