   43
Geometry Step: 904
    C      4.21234829      2.99652507     -0.32135120      4.11529232
    C      3.61399015      1.75058795     -0.15290646      4.08018704
    C      4.42974014      0.61840825      0.03483971      4.03025620
    C      5.84206714      0.79454637      0.03393125      3.86728817
    C      6.44746496      2.05007440     -0.12861029      4.16516494
    C      5.61010432      3.14852965     -0.30516071      4.06738631
    C      4.18994188     -0.80549076      0.21160231      4.04217969
    C      5.47805280     -1.41427372      0.28868691      3.86855733
    N      6.45137799     -0.43712112      0.19778642      5.17487592
    C      5.66632288     -2.79855189      0.41312819      4.16012933
    C      4.52651962     -3.59929576      0.44503747      4.07274651
    C      3.24842221     -3.03234814      0.36931604      4.13574697
    C      3.04146364     -1.64267018      0.27076540      3.97684448
    H      2.38187562     -3.68820370      0.41352268      0.91535914
    H      7.45024962     -0.60264675      0.21281098      0.78436856
    H      4.62613303     -4.67729505      0.53309981      0.91681477
    H      2.53176091      1.66042403     -0.16351463      0.89636826
    H      7.52878885      2.15798051     -0.12177850      0.91832973
    H      6.04237894      4.13722951     -0.43454064      0.92203541
    H      3.58706125      3.87338631     -0.46539682      0.91947275
    S     -3.20518140      0.59573786      0.30491931      5.99955916
    C     -2.16489069     -0.77432322     -0.09787188      3.84307718
    N     -2.82712063     -1.81519944     -0.59748251      5.17845596
    N     -4.16897721     -1.60334039     -0.69207719      5.18492338
    C     -4.55007121     -0.40003315     -0.26737126      3.82191675
    C     -0.73345400     -0.76141741      0.09654022      3.83403741
    N     -0.06635223      0.26962819      0.59940526      5.18108637
    N      1.27968040      0.05124587      0.68875869      5.18356498
    C      1.66421552     -1.13977534      0.25360625      3.80715215
    S      0.30156077     -2.13555511     -0.31529354      6.03924441
    C     -8.69724822      0.89854454     -0.30618401      4.12298334
    C     -8.31875405     -0.34292646     -0.74573270      4.07668144
    C     -6.95580635     -0.76886666     -0.73263784      4.09201162
    C     -5.93581146      0.04581231     -0.27557867      4.00848445
    C     -6.28576054      1.37438076      0.20213155      3.83660194
    C     -7.69354760      1.80701569      0.18569315      3.81189577
    N     -5.38454218      2.22426488      0.65719608      5.24034688
    S     -6.33572479      3.78238390      1.14556032      5.84175670
    N     -7.96924585      3.02375015      0.62907443      5.24758487
    H     -9.07002395     -1.03455578     -1.11848996      0.90958908
    H     -6.71249238     -1.76477948     -1.09327740      0.89763795
    H      6.66230810     -3.22839268      0.47129576      0.91475662
    H     -9.73882429      1.20640598     -0.32315200      0.89724775
