
     RDKit          3D

  0  0  0  0  0  0  0  0  0  0999 V3000
M  V30 BEGIN CTAB
M  V30 COUNTS 43 49 0 0 0
M  V30 BEGIN ATOM
M  V30 1 C 4.4504 2.9293 -0.4487 0
M  V30 2 C 3.8457 1.6814 -0.2968 0
M  V30 3 C 4.6251 0.6023 -0.0201 0
M  V30 4 C 5.9998 0.7120 0.1091 0
M  V30 5 C 6.6051 1.9536 -0.0421 0
M  V30 6 C 5.8116 3.0495 -0.3202 0
M  V30 7 C 4.3329 -0.7566 0.1591 0
M  V30 8 C 5.5580 -1.4137 0.3817 0
M  V30 9 N 6.5340 -0.4934 0.3454 0
M  V30 10 C 5.6543 -2.7739 0.5617 0
M  V30 11 C 4.5015 -3.5123 0.5226 0
M  V30 12 C 3.3033 -2.8846 0.3120 0
M  V30 13 C 3.2018 -1.4781 0.1284 0
M  V30 14 H 2.3607 -3.4119 0.2714 0
M  V30 15 H 7.5612 -0.7091 0.4848 0
M  V30 16 H 4.5290 -4.5824 0.6559 0
M  V30 17 H 2.8010 1.6505 -0.4542 0
M  V30 18 H 7.6746 2.0121 0.0642 0
M  V30 19 H 6.3100 4.0020 -0.4312 0
M  V30 20 H 3.8746 3.8078 -0.6656 0
M  V30 21 S -3.3724 0.5066 0.2251 0
M  V30 22 C -2.2263 -0.6941 -0.1996 0
M  V30 23 N -3.0205 -1.6351 -0.7056 0
M  V30 24 N -4.2656 -1.4503 -0.7495 0
M  V30 25 C -4.7872 -0.3246 -0.2947 0
M  V30 26 C -0.7639 -0.7049 -0.0549 0
M  V30 27 N -0.0268 0.2702 0.4606 0
M  V30 28 N 1.2163 0.1263 0.5227 0
M  V30 29 C 1.8475 -0.9307 0.1099 0
M  V30 30 S 0.4310 -1.8391 -0.4447 0
M  V30 31 C -8.7841 0.7970 -0.1972 0
M  V30 32 C -8.4461 -0.4315 -0.7172 0
M  V30 33 C -7.1157 -0.7924 -0.7441 0
M  V30 34 C -6.1923 0.0888 -0.2518 0
M  V30 35 C -6.5295 1.3464 0.2814 0
M  V30 36 C -7.8214 1.6950 0.3066 0
M  V30 37 N -5.6544 2.2342 0.7716 0
M  V30 38 S -6.6190 3.5202 1.2534 0
M  V30 39 N -8.1121 2.8944 0.8182 0
M  V30 40 H -9.2273 -1.0832 -1.0913 0
M  V30 41 H -6.8590 -1.7601 -1.1546 0
M  V30 42 H 6.6317 -3.2594 0.7331 0
M  V30 43 H -9.8375 1.0416 -0.1945 0
M  V30 END ATOM
M  V30 BEGIN BOND
M  V30 0 1 1 20
M  V30 1 1 2 17
M  V30 2 2 2 1
M  V30 3 1 3 2
M  V30 4 2 4 3
M  V30 5 1 4 5
M  V30 6 2 5 6
M  V30 7 1 6 1
M  V30 8 1 6 19
M  V30 9 1 7 3
M  V30 10 1 8 9
M  V30 11 2 8 7
M  V30 12 1 9 4
M  V30 13 1 10 8
M  V30 14 2 11 10
M  V30 15 1 11 12
M  V30 16 2 12 13
M  V30 17 1 13 7
M  V30 18 1 14 12
M  V30 19 1 15 9
M  V30 20 1 16 11
M  V30 21 1 18 5
M  V30 22 1 21 25
M  V30 23 1 21 22
M  V30 24 2 22 23
M  V30 25 1 24 23
M  V30 26 2 25 24
M  V30 27 1 26 22
M  V30 28 1 26 30
M  V30 29 1 27 28
M  V30 30 2 27 26
M  V30 31 2 28 29
M  V30 32 1 29 30
M  V30 33 1 31 36
M  V30 34 2 32 31
M  V30 35 2 33 34
M  V30 36 1 33 32
M  V30 37 1 34 35
M  V30 38 2 35 37
M  V30 39 1 35 36
M  V30 40 2 36 39
M  V30 41 1 37 38
M  V30 42 1 38 39
M  V30 43 1 40 32
M  V30 44 1 41 33
M  V30 45 1 13 29
M  V30 46 1 25 34
M  V30 47 1 10 42
M  V30 48 1 31 43
M  V30 END BOND
M  V30 END CTAB
M  END

$$$$
