
     RDKit          3D

  0  0  0  0  0  0  0  0  0  0999 V3000
M  V30 BEGIN CTAB
M  V30 COUNTS 63 71 0 0 0
M  V30 BEGIN ATOM
M  V30 1 C 6.5913 2.9611 0.5916 0
M  V30 2 C 6.5673 1.7045 -0.0358 0
M  V30 3 C 7.6976 0.9543 -0.0836 0
M  V30 4 C 8.9051 1.4073 0.4771 0
M  V30 5 C 8.9243 2.6425 1.0918 0
M  V30 6 C 7.7939 3.3688 1.1325 0
M  V30 7 C 7.9654 -0.3051 -0.6378 0
M  V30 8 C 9.3076 -0.5258 -0.3839 0
M  V30 9 N 9.8648 0.4945 0.2820 0
M  V30 10 C 9.9566 -1.6786 -0.8248 0
M  V30 11 C 9.2219 -2.6112 -1.5278 0
M  V30 12 C 7.8797 -2.3501 -1.7511 0
M  V30 13 C 7.2139 -1.2107 -1.3195 0
M  V30 14 H 7.3345 -3.1000 -2.3021 0
M  V30 15 H 10.8515 0.5836 0.6047 0
M  V30 16 H 9.6855 -3.4860 -1.8797 0
M  V30 17 H 5.6373 1.4616 -0.4900 0
M  V30 18 H 9.8509 3.0240 1.5344 0
M  V30 19 H 7.7772 4.3394 1.6102 0
M  V30 20 H 5.7178 3.5723 0.6457 0
M  V30 21 S 1.3330 -0.0819 0.0282 0
M  V30 22 C 1.7902 -0.9533 -1.2842 0
M  V30 23 N 0.5715 -1.2661 -1.8296 0
M  V30 24 N -0.4763 -0.8514 -1.2534 0
M  V30 25 C -0.4009 -0.1366 -0.1583 0
M  V30 26 C 3.0468 -1.4031 -2.0075 0
M  V30 27 N 3.9807 -1.7294 -2.5317 0
M  V30 28 N 5.2057 -1.8025 -2.5591 0
M  V30 29 C 5.7642 -1.2242 -1.4282 0
M  V30 30 S 4.3904 -0.7446 -0.6577 0
M  V30 31 C -6.6456 -0.4894 -1.7181 0
M  V30 32 C -7.4816 -1.3683 -2.3732 0
M  V30 33 C -7.5436 -2.6952 -2.0801 0
M  V30 34 C -6.6882 -3.1544 -1.0464 0
M  V30 35 C -5.8718 -2.2618 -0.4167 0
M  V30 36 C -5.8054 -0.9201 -0.7040 0
M  V30 37 C -4.9286 -0.1133 0.1050 0
M  V30 38 C -5.4927 0.7025 1.0753 0
M  V30 39 N -4.6325 1.3843 1.8426 0
M  V30 40 C -3.2798 1.3241 1.7235 0
M  V30 41 C -2.7144 0.5425 0.7868 0
M  V30 42 N -3.5880 -0.1711 -0.0115 0
M  V30 43 C -2.4143 2.0515 2.5494 0
M  V30 44 S -0.8948 1.6194 1.9831 0
M  V30 45 C -1.3495 0.5302 0.7204 0
M  V30 46 C -6.9227 0.8644 1.2710 0
M  V30 47 C -7.7031 -0.1598 1.6754 0
M  V30 48 C -9.1152 -0.0516 1.8765 0
M  V30 49 C -9.6719 1.2054 1.6331 0
M  V30 50 C -8.8934 2.2656 1.2212 0
M  V30 51 C -7.5674 2.0575 1.0571 0
M  V30 52 H -6.9803 2.9388 0.7271 0
M  V30 53 H -9.3870 3.2104 1.0520 0
M  V30 54 H -10.7261 1.3698 1.7678 0
M  V30 55 H -9.7242 -0.8505 2.1864 0
M  V30 56 H -7.3261 -1.1641 1.9233 0
M  V30 57 H -5.2284 -2.6561 0.3800 0
M  V30 58 H -6.7294 -4.1865 -0.8164 0
M  V30 59 H -8.2086 -3.3957 -2.5848 0
M  V30 60 H -8.1108 -0.9503 -3.1769 0
M  V30 61 H -6.6191 0.5477 -1.9739 0
M  V30 62 H 10.9900 -1.8275 -0.6289 0
M  V30 63 H -2.6947 2.7479 3.3638 0
M  V30 END ATOM
M  V30 BEGIN BOND
M  V30 0 1 1 20
M  V30 1 1 2 17
M  V30 2 2 2 1
M  V30 3 1 3 2
M  V30 4 2 4 3
M  V30 5 1 4 5
M  V30 6 2 5 6
M  V30 7 1 6 1
M  V30 8 1 6 19
M  V30 9 1 7 3
M  V30 10 1 8 9
M  V30 11 2 8 7
M  V30 12 1 9 4
M  V30 13 1 10 8
M  V30 14 2 11 10
M  V30 15 1 11 12
M  V30 16 2 12 13
M  V30 17 1 13 7
M  V30 18 1 14 12
M  V30 19 1 15 9
M  V30 20 1 16 11
M  V30 21 1 18 5
M  V30 22 1 21 25
M  V30 23 1 21 22
M  V30 24 2 22 23
M  V30 25 1 24 23
M  V30 26 2 25 24
M  V30 27 1 26 22
M  V30 28 1 26 30
M  V30 29 1 27 28
M  V30 30 2 27 26
M  V30 31 2 28 29
M  V30 32 1 29 30
M  V30 33 2 31 32
M  V30 34 1 31 36
M  V30 35 1 32 33
M  V30 36 1 33 59
M  V30 37 2 33 34
M  V30 38 1 34 58
M  V30 39 1 35 34
M  V30 40 1 35 57
M  V30 41 2 36 35
M  V30 42 1 37 36
M  V30 43 1 37 38
M  V30 44 1 38 46
M  V30 45 2 39 38
M  V30 46 1 40 39
M  V30 47 1 41 42
M  V30 48 1 41 40
M  V30 49 2 42 37
M  V30 50 2 43 40
M  V30 51 1 44 43
M  V30 52 1 45 44
M  V30 53 2 45 41
M  V30 54 1 46 47
M  V30 55 1 47 56
M  V30 56 2 47 48
M  V30 57 1 48 55
M  V30 58 1 49 48
M  V30 59 1 49 54
M  V30 60 2 50 49
M  V30 61 2 51 46
M  V30 62 1 51 50
M  V30 63 1 52 51
M  V30 64 1 53 50
M  V30 65 1 60 32
M  V30 66 1 61 31
M  V30 67 1 13 29
M  V30 68 1 25 45
M  V30 69 1 10 62
M  V30 70 1 43 63
M  V30 END BOND
M  V30 END CTAB
M  END

$$$$
