   48
Geometry Step: 1605
    C     -7.31687666      2.41123758      0.78110651      4.08134288
    C     -6.00390015      2.02860412      0.90473147      4.11907233
    C     -5.51516925      0.88306251      0.19755469      3.82800122
    C     -6.42042611      0.14736170     -0.65155446      3.82359508
    C     -7.78241276      0.58113125     -0.75087490      4.11791050
    C     -8.21229341      1.68132161     -0.05104655      4.08079116
    N     -4.21804015      0.51139493      0.33501906      5.31038584
    C     -3.80002588     -0.58031192     -0.34689492      3.84508379
    C     -4.70304758     -1.29661322     -1.22319323      3.82362099
    N     -6.00070928     -0.92805385     -1.36129682      5.30981535
    C     -4.21452345     -2.41740807     -1.96797395      4.13150880
    C     -2.90028452     -2.79936691     -1.85239231      4.07909112
    C     -2.01272098     -2.10742609     -0.98937952      4.11631211
    C     -2.42530594     -1.02446339     -0.22869272      3.98345078
    H     -0.98679104     -2.45792410     -0.90990884      0.91546342
    H     -2.52646139     -3.64921173     -2.41787426      0.91594165
    H     -4.89651208     -2.95493225     -2.62119658      0.90326011
    H     -9.24628975      2.00805358     -0.12788357      0.91621002
    H     -5.32121060      2.58558312      1.54181974      0.90674658
    H     -7.68631739      3.27941456      1.32100684      0.91619413
    S      2.82526094      1.42643594      2.81306640      5.97094642
    C      2.09433958      0.55300428      1.47296802      3.95253487
    C      3.05938897      0.15691593      0.56826992      4.16913213
    C      4.39080942      0.55276949      0.93001747      3.97241150
    C      4.41640336      1.25170814      2.12376283      4.12970153
    C      0.66603921      0.32942203      1.41213291      3.95316387
    C     -0.05399618     -0.32858296      0.43526418      4.17326436
    C     -1.46978837     -0.35553050      0.67685234      3.96995624
    C     -1.80756229      0.28199698      1.85789426      4.11542184
    S     -0.40609051      0.91858478      2.67632431      5.97403296
    H      0.41098535     -0.75666492     -0.44656061      0.90373434
    H      2.81896573     -0.38599188     -0.33930868      0.90302488
    H     -2.79820019      0.37564323      2.28253635      0.88160134
    H      5.29046279      1.64451427      2.62706526      0.89579429
    C      7.90002268     -0.35137892     -1.41935248      4.28835142
    C      6.69993052     -1.04627226     -1.62189928      3.64722847
    C      5.55083277     -0.75550788     -0.86398363      4.29313200
    C      5.59022489      0.24598640      0.12530254      3.89611960
    C      6.79397450      0.94733295      0.33540389      4.29589280
    C      7.93141247      0.64646760     -0.43517291      3.64659629
    O      6.65524582     -2.01715012     -2.56991226      6.46627418
    O      9.08625159      1.33030849     -0.23046118      6.46635912
    H      6.84736475      1.73436755      1.08283547      0.91566210
    H      5.77548915     -2.41438963     -2.60381366      0.64957954
    H      8.96948444      1.98699629      0.46814342      0.64949456
    H      4.63919276     -1.32026974     -1.03789022      0.91414638
    H     -8.46724668      0.02615081     -1.38714196      0.90501955
    H      8.78032089     -0.57861981     -2.00871841      0.87762555
