45

C         -5.44700       -2.21390        0.99360
C         -4.39240       -1.37650        0.61330
C         -4.65160       -0.05400        0.42720
C         -5.94320        0.44920        0.61770
C         -6.97220       -0.38780        0.99270
C         -6.71380       -1.72580        1.17900
C         -3.83940        1.01760        0.08120
C         -4.64570        2.14610        0.07530
N         -5.87510        1.76490        0.39490
C         -4.14460        3.40200       -0.19970
C         -2.81520        3.56520       -0.47980
C         -2.02140        2.45800       -0.47930
C         -2.52970        1.16430       -0.19970
H         -0.97110        2.56340       -0.70180
H         -6.69260        2.42530        0.46240
H         -2.36610        4.52020       -0.69960
H         -3.46400       -1.85610        0.53920
H         -7.94580        0.04280        1.12600
H         -7.53910       -2.37310        1.47420
H         -5.28040       -3.26860        1.14900
C          4.08960       -1.20620       -0.38610
N          3.65450       -2.44720       -0.71050
O          2.37870       -2.44810       -0.78550
C          1.86480       -1.27350       -0.53270
C          2.94040       -0.45460       -0.27240
C          0.44710       -0.95830       -0.53990
N         -0.56180       -1.80790       -0.80360
O         -1.68490       -1.18200       -0.71880
C         -1.60060        0.06110       -0.41450
C         -0.18250        0.23340       -0.28970
H          0.28400        1.15540       -0.03640
H          2.89140        0.59690       -0.02200
C          5.47580       -0.76770       -0.19920
C          5.68070        0.55280        0.13080
C          6.95260        1.01790        0.31750
C          7.98170        0.12520        0.16280
C          7.77490       -1.23090       -0.17590
C          6.52680       -1.68610       -0.35880
N          8.76470       -2.12300       -0.33280
S          7.96990       -3.54540       -0.72190
N          6.39340       -2.97860       -0.67790
H          4.85870        1.25600        0.25200
H          7.13960        2.05320        0.57780
H         -4.77110        4.27830       -0.20290
H          8.98210        0.51600        0.31560
