
     RDKit          3D

  0  0  0  0  0  0  0  0  0  0999 V3000
M  V30 BEGIN CTAB
M  V30 COUNTS 45 51 0 0 0
M  V30 BEGIN ATOM
M  V30 1 C -5.4470 -2.2139 0.9936 0
M  V30 2 C -4.3924 -1.3765 0.6133 0
M  V30 3 C -4.6516 -0.0540 0.4272 0
M  V30 4 C -5.9432 0.4492 0.6177 0
M  V30 5 C -6.9722 -0.3878 0.9927 0
M  V30 6 C -6.7138 -1.7258 1.1790 0
M  V30 7 C -3.8394 1.0176 0.0812 0
M  V30 8 C -4.6457 2.1461 0.0753 0
M  V30 9 N -5.8751 1.7649 0.3949 0
M  V30 10 C -4.1446 3.4020 -0.1997 0
M  V30 11 C -2.8152 3.5652 -0.4798 0
M  V30 12 C -2.0214 2.4580 -0.4793 0
M  V30 13 C -2.5297 1.1643 -0.1997 0
M  V30 14 H -0.9711 2.5634 -0.7018 0
M  V30 15 H -6.6926 2.4253 0.4624 0
M  V30 16 H -2.3661 4.5202 -0.6996 0
M  V30 17 H -3.4640 -1.8561 0.5392 0
M  V30 18 H -7.9458 0.0428 1.1260 0
M  V30 19 H -7.5391 -2.3731 1.4742 0
M  V30 20 H -5.2804 -3.2686 1.1490 0
M  V30 21 C 4.0896 -1.2062 -0.3861 0
M  V30 22 N 3.6545 -2.4472 -0.7105 0
M  V30 23 O 2.3787 -2.4481 -0.7855 0
M  V30 24 C 1.8648 -1.2735 -0.5327 0
M  V30 25 C 2.9404 -0.4546 -0.2724 0
M  V30 26 C 0.4471 -0.9583 -0.5399 0
M  V30 27 N -0.5618 -1.8079 -0.8036 0
M  V30 28 O -1.6849 -1.1820 -0.7188 0
M  V30 29 C -1.6006 0.0611 -0.4145 0
M  V30 30 C -0.1825 0.2334 -0.2897 0
M  V30 31 H 0.2840 1.1554 -0.0364 0
M  V30 32 H 2.8914 0.5969 -0.0220 0
M  V30 33 C 5.4758 -0.7677 -0.1992 0
M  V30 34 C 5.6807 0.5528 0.1308 0
M  V30 35 C 6.9526 1.0179 0.3175 0
M  V30 36 C 7.9817 0.1252 0.1628 0
M  V30 37 C 7.7749 -1.2309 -0.1759 0
M  V30 38 C 6.5268 -1.6861 -0.3588 0
M  V30 39 N 8.7647 -2.1230 -0.3328 0
M  V30 40 S 7.9699 -3.5454 -0.7219 0
M  V30 41 N 6.3934 -2.9786 -0.6779 0
M  V30 42 H 4.8587 1.2560 0.2520 0
M  V30 43 H 7.1396 2.0532 0.5778 0
M  V30 44 H -4.7711 4.2783 -0.2029 0
M  V30 45 H 8.9821 0.5160 0.3156 0
M  V30 END ATOM
M  V30 BEGIN BOND
M  V30 0 1 1 20
M  V30 1 1 2 17
M  V30 2 2 2 1
M  V30 3 1 3 2
M  V30 4 2 4 3
M  V30 5 1 4 5
M  V30 6 2 5 6
M  V30 7 1 6 1
M  V30 8 1 6 19
M  V30 9 1 7 3
M  V30 10 1 8 9
M  V30 11 2 8 7
M  V30 12 1 9 4
M  V30 13 1 10 8
M  V30 14 2 11 10
M  V30 15 1 11 12
M  V30 16 2 12 13
M  V30 17 1 13 7
M  V30 18 1 14 12
M  V30 19 1 15 9
M  V30 20 1 16 11
M  V30 21 1 18 5
M  V30 22 2 21 22
M  V30 23 1 23 22
M  V30 24 1 24 23
M  V30 25 1 25 21
M  V30 26 2 25 24
M  V30 27 1 26 24
M  V30 28 1 26 30
M  V30 29 2 27 26
M  V30 30 1 28 27
M  V30 31 1 28 29
M  V30 32 2 29 30
M  V30 33 1 30 31
M  V30 34 1 32 25
M  V30 35 1 33 38
M  V30 36 2 34 33
M  V30 37 2 35 36
M  V30 38 1 35 34
M  V30 39 1 36 37
M  V30 40 2 37 39
M  V30 41 1 37 38
M  V30 42 2 38 41
M  V30 43 1 39 40
M  V30 44 1 40 41
M  V30 45 1 42 34
M  V30 46 1 43 35
M  V30 47 1 13 29
M  V30 48 1 21 33
M  V30 49 1 10 44
M  V30 50 1 36 45
M  V30 END BOND
M  V30 END CTAB
M  END

$$$$
