
     RDKit          3D

  0  0  0  0  0  0  0  0  0  0999 V3000
M  V30 BEGIN CTAB
M  V30 COUNTS 80 85 0 0 0
M  V30 BEGIN ATOM
M  V30 1 C 8.4469 -1.9773 -1.9363 0
M  V30 2 C 7.4131 -1.3658 -1.2213 0
M  V30 3 C 7.6661 -0.9549 0.0569 0
M  V30 4 C 8.9239 -1.1477 0.6283 0
M  V30 5 C 9.9145 -1.7640 -0.1351 0
M  V30 6 C 9.6875 -2.1833 -1.4211 0
M  V30 7 C 6.8713 -0.3526 1.0160 0
M  V30 8 C 7.6948 -0.2169 2.1328 0
M  V30 9 N 8.9199 -0.6955 1.8847 0
M  V30 10 C 7.2030 0.3248 3.3001 0
M  V30 11 C 5.8885 0.7288 3.3406 0
M  V30 12 C 5.0852 0.5958 2.2352 0
M  V30 13 C 5.5697 0.0424 1.0198 0
M  V30 14 H 4.0640 0.9195 2.2843 0
M  V30 15 H 9.7507 -0.7311 2.5209 0
M  V30 16 H 5.5462 1.1459 4.2788 0
M  V30 17 H 6.4957 -1.3068 -1.7326 0
M  V30 18 H 10.8859 -1.9119 0.3056 0
M  V30 19 H 10.4456 -2.6625 -2.0273 0
M  V30 20 H 8.2303 -2.2964 -2.9520 0
M  V30 21 C -0.9670 0.2795 -1.3569 0
M  V30 22 N -0.5795 0.3223 -2.6440 0
M  V30 23 O 0.7177 0.2983 -2.7071 0
M  V30 24 C 1.2534 0.2410 -1.5286 0
M  V30 25 C 0.2048 0.2273 -0.6327 0
M  V30 26 C 2.6852 0.1985 -1.1962 0
M  V30 27 N 3.6958 0.2150 -2.0644 0
M  V30 28 O 4.7992 0.1644 -1.3956 0
M  V30 29 C 4.6663 0.1134 -0.1314 0
M  V30 30 C 3.2486 0.1346 0.0415 0
M  V30 31 H 2.7564 0.1007 0.9968 0
M  V30 32 H 0.3300 0.1829 0.4347 0
M  V30 33 C -4.8161 0.2971 0.3072 0
M  V30 34 C -4.1869 -0.9165 -0.0081 0
M  V30 35 C -2.9198 -0.9303 -0.5518 0
M  V30 36 C -2.2987 0.2824 -0.7732 0
M  V30 37 C -2.9190 1.4892 -0.4617 0
M  V30 38 C -4.1918 1.5039 0.0849 0
M  V30 39 N -2.2882 2.7192 -0.6870 0
M  V30 40 C -2.3680 3.4533 -1.7166 0
M  V30 41 C -1.6282 4.7295 -1.7829 0
M  V30 42 N -4.8079 2.7520 0.3988 0
M  V30 43 C -5.9389 3.0876 -0.1155 0
M  V30 44 C -6.5299 4.4005 0.2505 0
M  V30 45 N -4.8644 -2.1193 0.2266 0
M  V30 46 C -5.3641 -2.4994 1.3490 0
M  V30 47 C -5.2480 -1.6329 2.5472 0
M  V30 48 N -2.2326 -2.1002 -0.8862 0
M  V30 49 C -1.6071 -2.9103 -0.1627 0
M  V30 50 C -1.5040 -2.7098 1.2947 0
M  V30 51 C -3.1999 3.0588 -2.8813 0
M  V30 52 C -6.6979 2.2337 -1.0637 0
M  V30 53 C -6.0676 -3.7976 1.4943 0
M  V30 54 C -0.9553 -4.0936 -0.7647 0
M  V30 55 H -3.7202 2.1074 -2.6456 0
M  V30 56 H -2.6042 2.9982 -3.8086 0
M  V30 57 H -3.9444 3.8890 -3.0289 0
M  V30 58 H -1.8207 5.2929 -2.7136 0
M  V30 59 H -1.8240 5.4016 -0.9409 0
M  V30 60 H -0.5329 4.4602 -1.8006 0
M  V30 61 H -0.1280 -3.8174 -1.4450 0
M  V30 62 H -0.6452 -4.8397 -0.0041 0
M  V30 63 H -1.7307 -4.5907 -1.4023 0
M  V30 64 H -2.3299 -3.3242 1.7578 0
M  V30 65 H -1.7070 -1.6651 1.6008 0
M  V30 66 H -0.5719 -3.1105 1.7336 0
M  V30 67 H -5.2150 -2.2524 3.4842 0
M  V30 68 H -6.1921 -1.0530 2.6389 0
M  V30 69 H -4.3340 -1.0333 2.5668 0
M  V30 70 H -6.0830 -4.0998 2.5409 0
M  V30 71 H -7.0866 -3.7718 1.0616 0
M  V30 72 H -5.5173 -4.6158 0.9440 0
M  V30 73 H -7.4253 1.5718 -0.5330 0
M  V30 74 H -6.0619 1.5845 -1.6808 0
M  V30 75 H -7.3164 2.8533 -1.7489 0
M  V30 76 H -5.8197 5.0422 0.8095 0
M  V30 77 H -6.8371 4.9882 -0.6389 0
M  V30 78 H -7.4631 4.2523 0.8655 0
M  V30 79 H 7.8382 0.4282 4.1622 0
M  V30 80 H -5.8071 0.3380 0.7333 0
M  V30 END ATOM
M  V30 BEGIN BOND
M  V30 0 1 1 20
M  V30 1 1 2 17
M  V30 2 2 2 1
M  V30 3 1 3 2
M  V30 4 2 4 3
M  V30 5 1 4 5
M  V30 6 2 5 6
M  V30 7 1 6 1
M  V30 8 1 6 19
M  V30 9 1 7 3
M  V30 10 1 8 9
M  V30 11 2 8 7
M  V30 12 1 9 4
M  V30 13 1 10 8
M  V30 14 2 11 10
M  V30 15 1 11 12
M  V30 16 2 12 13
M  V30 17 1 13 7
M  V30 18 1 14 12
M  V30 19 1 15 9
M  V30 20 1 16 11
M  V30 21 1 18 5
M  V30 22 2 21 22
M  V30 23 1 23 22
M  V30 24 1 24 23
M  V30 25 1 25 21
M  V30 26 2 25 24
M  V30 27 1 26 24
M  V30 28 1 26 30
M  V30 29 2 27 26
M  V30 30 1 28 27
M  V30 31 1 28 29
M  V30 32 2 29 30
M  V30 33 1 30 31
M  V30 34 1 32 25
M  V30 35 1 33 38
M  V30 36 2 34 33
M  V30 37 1 34 35
M  V30 38 2 35 36
M  V30 39 1 36 37
M  V30 40 1 37 39
M  V30 41 1 38 42
M  V30 42 2 38 37
M  V30 43 2 39 40
M  V30 44 1 40 41
M  V30 45 1 41 60
M  V30 46 1 41 59
M  V30 47 1 41 58
M  V30 48 1 43 52
M  V30 49 2 43 42
M  V30 50 1 44 76
M  V30 51 1 44 77
M  V30 52 1 44 43
M  V30 53 1 45 34
M  V30 54 1 46 53
M  V30 55 2 46 45
M  V30 56 1 47 46
M  V30 57 1 48 35
M  V30 58 2 48 49
M  V30 59 1 49 54
M  V30 60 1 50 49
M  V30 61 1 50 65
M  V30 62 1 51 40
M  V30 63 1 51 55
M  V30 64 1 51 57
M  V30 65 1 52 73
M  V30 66 1 52 75
M  V30 67 1 53 71
M  V30 68 1 54 63
M  V30 69 1 56 51
M  V30 70 1 61 54
M  V30 71 1 62 54
M  V30 72 1 64 50
M  V30 73 1 66 50
M  V30 74 1 67 47
M  V30 75 1 68 47
M  V30 76 1 69 47
M  V30 77 1 70 53
M  V30 78 1 72 53
M  V30 79 1 74 52
M  V30 80 1 78 44
M  V30 81 1 13 29
M  V30 82 1 21 36
M  V30 83 1 10 79
M  V30 84 1 33 80
M  V30 END BOND
M  V30 END CTAB
M  END

$$$$
