66

C          6.79880        2.49780        1.42070
C          6.53240        1.20730        0.96430
C          7.51800        0.46320        0.37190
C          8.81000        0.97410        0.21600
C          9.05220        2.24240        0.67030
C          8.06040        2.99040        1.26240
C          7.54590       -0.82040       -0.12530
C          8.85740       -1.04830       -0.55610
N          9.60180        0.03920       -0.34660
C          9.24730       -2.25540       -1.05720
C          8.31230       -3.25750       -1.13330
C          7.02840       -3.03040       -0.71690
C          6.59750       -1.78010       -0.19490
H          6.29790       -3.81870       -0.77690
H         10.60390        0.22030       -0.54630
H          8.56610       -4.25600       -1.52530
H          5.53740        0.88590        1.17300
H         10.02280        2.67490        0.57140
H          8.25320        3.98840        1.61760
H          6.03620        3.11560        1.89450
C         -0.30150        0.32620       -0.47860
N          0.50250        1.21380       -1.04890
O          1.73400        0.79880       -0.97330
C          1.79620       -0.35190       -0.36530
C          0.50790       -0.70260       -0.02460
C          3.02700       -1.10280       -0.11010
N          3.17460       -2.28080        0.50250
O          4.40890       -2.62380        0.53960
C          5.16400       -1.68220       -0.05310
C          4.30580       -0.73400       -0.45940
H          4.49110        0.18960       -0.99680
H          0.21860       -1.59950        0.48950
C         -7.33090        1.62080        1.80550
C         -6.66000        1.55590        0.60930
C         -6.83220        2.63110       -0.23890
C         -7.62680        3.72080        0.07630
C         -8.27900        3.75120        1.27310
C         -8.12780        2.69240        2.13980
N         -5.95250        0.43460        0.14840
C         -6.51030       -0.88520        0.02020
C         -6.21610       -1.53980       -1.18310
C         -6.66300       -2.81480       -1.46430
C         -7.42940       -3.48320       -0.53550
C         -7.71310       -2.83640        0.63970
C         -7.25310       -1.53220        0.92210
C         -4.54290        0.51710       -0.07670
C         -3.80440       -0.56630        0.41500
C         -2.44000       -0.64160        0.29320
C         -1.77300        0.38150       -0.33320
C         -2.47150        1.43840       -0.81540
C         -3.87380        1.51200       -0.68800
H         -4.29250       -1.39430        0.91580
H         -1.85550       -1.47450        0.66930
H         -1.96170        2.26010       -1.31550
H         -4.34870        2.39120       -1.09480
H         -5.60820       -0.98410       -1.89630
H         -6.41950       -3.28820       -2.39670
H         -7.80260       -4.50250       -0.72840
H         -8.30120       -3.30260        1.39590
H         -7.49760       -1.08670        1.84840
H         -6.39330        2.67490       -1.24660
H         -7.76040        4.56490       -0.58810
H         -8.65930        2.73270        3.09610
H         -7.24430        0.85910        2.57350
H         10.25750       -2.46940       -1.40020
H         -8.92190        4.57980        1.58410
