   46
Geometry Step: 1186
    C     -5.35959046     -1.82411071      2.67451179      4.11582049
    C     -4.54818919     -1.08306006      1.81826480      4.08647376
    C     -5.11835289     -0.49435392      0.67453957      4.03210115
    C     -6.50089797     -0.71126260      0.41481820      3.86670424
    C     -7.32208171     -1.44985894      1.28041121      4.16435434
    C     -6.73102273     -1.99692003      2.41710094      4.07190515
    C     -4.60720528      0.29088329     -0.43717861      4.06357671
    C     -5.70160631      0.47288016     -1.32994380      3.86465030
    N     -6.83306319     -0.11143279     -0.78775571      5.17688288
    C     -5.57426643      1.12688914     -2.56524442      4.17396472
    C     -4.30673946      1.59050872     -2.91359660      4.07068379
    C     -3.21503575      1.43692291     -2.04782921      4.14390781
    C     -3.33707987      0.81767655     -0.79031829      3.94093715
    H     -2.24755340      1.83603947     -2.34252096      0.91553975
    H     -7.74449370     -0.14150944     -1.22786610      0.78536393
    H     -4.16138658      2.09020441     -3.86746370      0.91991346
    H     -3.48795226     -0.98302688      2.03137762      0.91191204
    H     -8.37715134     -1.59784734      1.06589616      0.91879931
    H     -7.33557598     -2.57665552      3.10952853      0.92248475
    H     -4.92531046     -2.28114521      3.55941737      0.92034447
    N      2.36983591      0.41259834      0.47417104      5.34825602
    C      1.47101328      0.66900009      1.50153849      3.85308065
    C      2.03701640      0.81440204      2.75839974      4.14837620
    S      3.76733251      0.62481481      2.66396398      5.99379088
    C      3.61688866      0.35770664      0.91428117      3.77981820
    C      0.05382031      0.76190893      1.19483241      3.80218680
    S     -0.53266685      0.54784239     -0.46346380      6.01260561
    C     -2.18012183      0.78408598      0.11322574      4.00434830
    C     -2.15009844      1.02292271      1.47607996      3.98243390
    N     -0.90974378      1.00642148      2.07207780      5.32547515
    H      1.51332447      1.01646338      3.68314347      0.87965509
    H     -3.02825833      1.25335962      2.07518664      0.91551199
    S      6.38471315      0.07424348      0.87905987      6.05031898
    C      7.30899390     -0.26151554     -0.61771916      3.98350849
    S      6.28371249     -0.39570743     -2.07900845      6.00845090
    C      4.75538115     -0.10839177     -1.25411668      4.08835012
    C      4.78180328      0.10709671      0.08981285      3.98323613
    C      8.65839287     -0.40110594     -0.64282223      3.96628146
    S      9.68014023     -0.26652867      0.81863916      6.02127157
    C     11.21452469     -0.55712968     -0.02175275      4.08740301
    C     11.17007574     -0.76838376     -1.35084582      4.08698302
    S      9.58095687     -0.73645147     -2.13807499      6.02471570
    H      3.83431157     -0.10924800     -1.82767617      0.88155148
    H     12.04691140     -0.95557938     -1.96118499      0.89504682
    H     -6.42532578      1.25160164     -3.22864599      0.91599939
    H     12.13142107     -0.55524778      0.55764993      0.89502394
