45

C         -5.29160        1.67560        2.45200
C         -4.53260        0.94180        1.55360
C         -5.15760        0.09040        0.68300
C         -6.54750       -0.03400        0.69720
C         -7.30000        0.69670        1.59090
C         -6.66340        1.54470        2.46050
C         -4.69810       -0.73660       -0.32260
C         -5.83760       -1.33010       -0.89040
N         -6.92680       -0.89020       -0.25640
C         -5.75900       -2.19180       -1.95250
C         -4.52660       -2.47500       -2.46470
C         -3.41970       -1.90950       -1.91930
C         -3.49080       -1.01600       -0.81530
H         -2.45260       -2.12990       -2.31790
H         -7.93180       -1.16130       -0.45910
H         -4.49040       -3.16590       -3.31710
H         -3.50530        1.13010        1.58330
H         -8.39790        0.58890        1.59300
H         -7.28700        2.10670        3.15460
H         -4.85960        2.36310        3.16560
S          2.90810        0.34940        1.33030
C          4.34050        0.37130        0.40000
N          3.86520        0.08500       -0.80610
N          2.63050       -0.11100       -0.96580
C          1.80250       -0.03380        0.05980
C          0.35660       -0.21490        0.13520
N         -0.49210       -0.14280        1.14840
N         -1.71150       -0.34600        0.93780
C         -2.21670       -0.62770       -0.22240
S         -0.69360       -0.59080       -1.13620
C          8.35250        1.11160        1.48030
N          7.37470        1.15010        2.40560
C          6.07580        0.91610        2.08670
C          5.74530        0.63020        0.77630
C          6.70480        0.57850       -0.20710
C          8.03120        0.82480        0.15880
N          6.40810        0.30250       -1.48820
C          7.36740        0.25840       -2.43010
C          8.67150        0.49930       -2.07730
N          8.96930        0.77490       -0.79910
H          5.30470        0.95160        2.84440
H          7.11280        0.03750       -3.44280
H          9.43460        0.46270       -2.83510
H         -6.65290       -2.63380       -2.37080
H          9.38640        1.29890        1.73990
