
     RDKit          3D

  0  0  0  0  0  0  0  0  0  0999 V3000
M  V30 BEGIN CTAB
M  V30 COUNTS 47 52 0 0 0
M  V30 BEGIN ATOM
M  V30 1 C -5.5701 1.1088 -2.3860 0
M  V30 2 C -4.5746 0.7181 -1.4771 0
M  V30 3 C -4.8049 -0.1837 -0.4627 0
M  V30 4 C -6.0752 -0.7285 -0.3421 0
M  V30 5 C -7.0726 -0.3506 -1.2365 0
M  V30 6 C -6.8207 0.5542 -2.2409 0
M  V30 7 C -4.0229 -0.7494 0.5299 0
M  V30 8 C -4.8456 -1.6432 1.2351 0
M  V30 9 N -6.0506 -1.5885 0.6764 0
M  V30 10 C -4.3141 -2.3802 2.2673 0
M  V30 11 C -3.0027 -2.2702 2.6338 0
M  V30 12 C -2.2044 -1.4032 1.9572 0
M  V30 13 C -2.7091 -0.6221 0.8888 0
M  V30 14 H -1.1717 -1.2739 2.2048 0
M  V30 15 H -6.8609 -2.1565 1.0100 0
M  V30 16 H -2.6254 -2.8854 3.4663 0
M  V30 17 H -3.6377 1.1418 -1.6696 0
M  V30 18 H -8.0549 -0.7840 -1.1265 0
M  V30 19 H -7.6071 0.8462 -2.9369 0
M  V30 20 H -5.3710 1.8180 -3.1735 0
M  V30 21 C 3.8096 1.2660 -0.2214 0
M  V30 22 N 3.4914 2.4395 -0.7969 0
M  V30 23 O 2.2138 2.6004 -0.8427 0
M  V30 24 C 1.6292 1.5825 -0.3205 0
M  V30 25 C 2.5984 0.6971 0.0942 0
M  V30 26 C 0.1851 1.3191 -0.1507 0
M  V30 27 N -0.8425 2.1096 -0.5165 0
M  V30 28 O -1.9572 1.5302 -0.1982 0
M  V30 29 C -1.8373 0.3992 0.3615 0
M  V30 30 C -0.4183 0.2203 0.4124 0
M  V30 31 H 0.1160 -0.6199 0.8131 0
M  V30 32 H 2.4797 -0.2651 0.5762 0
M  V30 33 C 7.7175 -0.2215 0.3611 0
M  V30 34 C 7.0203 -0.4996 -0.8089 0
M  V30 35 C 5.7445 -0.0107 -0.9925 0
M  V30 36 C 5.1640 0.7579 -0.0048 0
M  V30 37 C 5.8440 1.0445 1.1663 0
M  V30 38 C 7.1343 0.5453 1.3428 0
M  V30 39 O 5.2822 1.8144 2.1731 0
M  V30 40 O 5.0963 -0.3229 -2.1854 0
M  V30 41 O 9.0166 -0.7228 0.5413 0
M  V30 42 H 9.1590 -1.6337 0.9782 0
M  V30 43 H 4.1651 0.0433 -2.3013 0
M  V30 44 H 4.3476 2.1649 2.0236 0
M  V30 45 H 7.6865 0.7615 2.2614 0
M  V30 46 H -4.9791 -3.0588 2.7857 0
M  V30 47 H 7.5301 -1.1082 -1.5460 0
M  V30 END ATOM
M  V30 BEGIN BOND
M  V30 0 1 1 20
M  V30 1 1 2 17
M  V30 2 2 2 1
M  V30 3 1 3 2
M  V30 4 2 4 3
M  V30 5 1 4 5
M  V30 6 2 5 6
M  V30 7 1 6 1
M  V30 8 1 6 19
M  V30 9 1 7 3
M  V30 10 1 8 9
M  V30 11 2 8 7
M  V30 12 1 9 4
M  V30 13 1 10 8
M  V30 14 2 11 10
M  V30 15 1 11 12
M  V30 16 2 12 13
M  V30 17 1 13 7
M  V30 18 1 14 12
M  V30 19 1 15 9
M  V30 20 1 16 11
M  V30 21 1 18 5
M  V30 22 2 21 22
M  V30 23 1 23 22
M  V30 24 1 24 23
M  V30 25 1 25 21
M  V30 26 2 25 24
M  V30 27 1 26 24
M  V30 28 1 26 30
M  V30 29 2 27 26
M  V30 30 1 28 27
M  V30 31 1 28 29
M  V30 32 2 29 30
M  V30 33 1 30 31
M  V30 34 1 32 25
M  V30 35 2 33 34
M  V30 36 1 33 38
M  V30 37 1 34 35
M  V30 38 1 35 40
M  V30 39 2 35 36
M  V30 40 1 37 39
M  V30 41 1 37 36
M  V30 42 2 38 37
M  V30 43 1 39 44
M  V30 44 1 41 33
M  V30 45 1 42 41
M  V30 46 1 43 40
M  V30 47 1 45 38
M  V30 48 1 13 29
M  V30 49 1 21 36
M  V30 50 1 10 46
M  V30 51 1 34 47
M  V30 END BOND
M  V30 END CTAB
M  END

$$$$
