68

C          8.04480        2.70170        0.48500
C          7.21260        1.62310        0.28180
C          7.59620        0.39480        0.73850
C          8.80580        0.22920        1.40550
C          9.61720        1.31620        1.59650
C          9.25200        2.55020        1.14390
C          6.99770       -0.87140        0.74210
C          7.85860       -1.74560        1.41780
N          8.93810       -1.04220        1.79850
C          7.51600       -3.06820        1.64090
C          6.29850       -3.49240        1.17260
C          5.46030       -2.66180        0.51370
C          5.81160       -1.29820        0.27760
H          4.50970       -2.97320        0.14320
H          9.74120       -1.48500        2.32800
H          6.04000       -4.54850        1.36290
H          6.29000        1.82700       -0.17880
H         10.56880        1.14570        2.12780
H          9.92520        3.37330        1.31730
H          7.80890        3.71160        0.14840
O          0.64830        0.06950       -1.07960
C          1.66410        0.41390       -1.81180
C          1.18540        1.11960       -2.89320
C         -0.20040        1.14940       -2.71530
C         -0.48510        0.46890       -1.55040
C          3.09660        0.12870       -1.57760
C          4.13630        0.51700       -2.38570
C          5.28780        0.04860       -1.80520
C          4.94050       -0.60790       -0.66840
O          3.61870       -0.52950       -0.58150
H          6.28450        0.20210       -2.24880
H          4.02550        1.08320       -3.29760
H         -0.90060        1.63090       -3.39200
H          1.67840        1.57410       -3.72080
C         -4.22160        0.64090       -1.21940
C         -4.46280       -0.05990       -0.02820
C         -3.39580       -0.56460        0.62450
C         -2.11330       -0.39150        0.12970
C         -1.83890        0.28960       -1.03410
C         -2.94940        0.79340       -1.67940
N         -5.84740       -0.17440        0.34220
C         -6.55840        1.04160        0.18560
C         -7.76780        1.13750       -0.40180
C         -8.45590        2.35860       -0.52870
C         -7.89240        3.51100       -0.04300
C         -6.65890        3.44750        0.56160
C         -6.01520        2.24080        0.66930
C         -6.43760       -1.28760        0.96530
C         -7.55130       -1.95580        0.47450
C         -8.16850       -2.95450        1.19100
C         -7.74010       -3.36560        2.42650
C         -6.64390       -2.73220        2.94550
C         -6.03440       -1.73630        2.22740
H         -7.93750       -1.72210       -0.53490
H         -9.04910       -3.44690        0.75030
H         -6.29050       -3.04860        3.92730
H         -5.21060       -1.26080        2.73880
H         -8.30600        0.31480       -0.83110
H         -9.42400        2.41730       -1.00180
H         -8.40450        4.46530       -0.12930
H         -6.22490        4.35260        0.93870
H         -5.03910        2.14240        1.13920
H         -3.52670       -1.12720        1.54370
H         -1.25500       -0.80510        0.66830
H         -2.75350        1.33950       -2.60910
H         -5.05800        1.06070       -1.77140
H          8.18740       -3.73480        2.16470
H         -8.22760       -4.14040        2.96890
