
     RDKit          3D

  0  0  0  0  0  0  0  0  0  0999 V3000
M  V30 BEGIN CTAB
M  V30 COUNTS 44 49 0 0 0
M  V30 BEGIN ATOM
M  V30 1 C -5.1380 0.7018 -2.5698 0
M  V30 2 C -4.3498 0.3843 -1.4542 0
M  V30 3 C -4.9554 -0.0472 -0.3200 0
M  V30 4 C -6.3549 -0.1544 -0.3087 0
M  V30 5 C -7.1314 0.1541 -1.3939 0
M  V30 6 C -6.5014 0.5854 -2.5308 0
M  V30 7 C -4.4875 -0.4059 0.9229 0
M  V30 8 C -5.6377 -0.7190 1.6709 0
M  V30 9 N -6.7336 -0.5601 0.9057 0
M  V30 10 C -5.5403 -1.0862 2.9821 0
M  V30 11 C -4.3064 -1.1489 3.5666 0
M  V30 12 C -3.2034 -0.8486 2.8328 0
M  V30 13 C -3.2585 -0.4662 1.4713 0
M  V30 14 H -2.2319 -0.8946 3.2795 0
M  V30 15 H -7.7265 -0.7364 1.2405 0
M  V30 16 H -4.1881 -1.4360 4.6133 0
M  V30 17 H -3.3171 0.5388 -1.5452 0
M  V30 18 H -8.2052 0.0521 -1.3300 0
M  V30 19 H -7.0986 0.8299 -3.3906 0
M  V30 20 H -4.6717 1.0392 -3.4637 0
M  V30 21 S 3.0775 -0.0526 -1.1355 0
M  V30 22 C 4.5419 0.3403 -0.3493 0
M  V30 23 N 4.1100 0.5655 0.8879 0
M  V30 24 N 2.8799 0.4508 1.1550 0
M  V30 25 C 2.0212 0.1116 0.2253 0
M  V30 26 C 0.5762 -0.0892 0.2550 0
M  V30 27 N -0.2775 -0.4331 -0.6980 0
M  V30 28 N -1.4924 -0.5424 -0.4169 0
M  V30 29 C -1.9933 -0.3404 0.7632 0
M  V30 30 S -0.4721 0.0674 1.5791 0
M  V30 31 C 8.4366 0.5119 -2.0182 0
M  V30 32 C 8.2379 0.7983 -0.6628 0
M  V30 33 C 6.9788 0.7493 -0.0955 0
M  V30 34 C 5.9148 0.4166 -0.8699 0
M  V30 35 C 6.1186 0.1352 -2.2067 0
M  V30 36 C 7.3661 0.1783 -2.7925 0
M  V30 37 O 9.3702 1.1275 0.0543 0
M  V30 38 O 7.4994 -0.1148 -4.1359 0
M  V30 39 H 5.2593 -0.1283 -2.8098 0
M  V30 40 H 9.3521 1.3534 1.0376 0
M  V30 41 H 7.6702 -1.0800 -4.4104 0
M  V30 42 H 6.8464 0.9731 0.9492 0
M  V30 43 H -6.4118 -1.3324 3.5840 0
M  V30 44 H 9.4275 0.5516 -2.4596 0
M  V30 END ATOM
M  V30 BEGIN BOND
M  V30 0 1 1 20
M  V30 1 1 2 17
M  V30 2 2 2 1
M  V30 3 1 3 2
M  V30 4 2 4 3
M  V30 5 1 4 5
M  V30 6 2 5 6
M  V30 7 1 6 1
M  V30 8 1 6 19
M  V30 9 1 7 3
M  V30 10 1 8 9
M  V30 11 2 8 7
M  V30 12 1 9 4
M  V30 13 1 10 8
M  V30 14 2 11 10
M  V30 15 1 11 12
M  V30 16 2 12 13
M  V30 17 1 13 7
M  V30 18 1 14 12
M  V30 19 1 15 9
M  V30 20 1 16 11
M  V30 21 1 18 5
M  V30 22 1 21 22
M  V30 23 1 21 25
M  V30 24 2 22 23
M  V30 25 1 23 24
M  V30 26 2 25 24
M  V30 27 1 26 25
M  V30 28 1 26 30
M  V30 29 1 27 28
M  V30 30 2 27 26
M  V30 31 2 28 29
M  V30 32 1 29 30
M  V30 33 2 31 32
M  V30 34 1 31 36
M  V30 35 1 32 33
M  V30 36 1 33 42
M  V30 37 2 33 34
M  V30 38 1 35 39
M  V30 39 1 35 34
M  V30 40 2 36 35
M  V30 41 1 37 40
M  V30 42 1 37 32
M  V30 43 1 38 36
M  V30 44 1 41 38
M  V30 45 1 13 29
M  V30 46 1 22 34
M  V30 47 1 10 43
M  V30 48 1 31 44
M  V30 END BOND
M  V30 END CTAB
M  END

$$$$
