43

C         -5.00330       -2.43660        1.37550
C         -4.25220       -1.40250        0.85330
C         -4.90010       -0.33700        0.29970
C         -6.30510       -0.33530        0.28820
C         -7.03080       -1.36520        0.80900
C         -6.37700       -2.42950        1.35910
C         -4.50650        0.83880       -0.27200
C         -5.66600        1.53740       -0.61400
N         -6.73010        0.80760       -0.26750
C         -5.62050        2.78280       -1.18220
C         -4.38240        3.36480       -1.42540
C         -3.27690        2.66920       -1.09050
C         -3.28840        1.37780       -0.50330
H         -2.30330        3.12750       -1.28290
H         -7.73250        1.08170       -0.40630
H         -4.30490        4.34050       -1.86720
H         -3.22420       -1.49440        0.95280
H         -8.09940       -1.38690        0.81100
H         -6.92680       -3.25020        1.77310
H         -4.51230       -3.31330        1.82890
S          2.96870       -1.32180       -0.18920
C          4.52360       -0.60830       -0.04850
N          4.21630        0.67720        0.01430
N          3.00270        1.03230       -0.03760
C          2.04740        0.13450       -0.15320
C          0.59480        0.27480       -0.23340
N         -0.26230       -0.73190       -0.35000
N         -1.48900       -0.47780       -0.40900
C         -1.98490        0.71760       -0.36330
S         -0.46250        1.59920       -0.21410
C          5.84670       -1.26950       -0.00930
S          6.18180       -2.93470       -0.09450
C          7.88090       -2.87990        0.01320
C          8.13720       -1.53340        0.11440
C          7.08770       -0.70350        0.10280
N          9.39940       -0.98190        0.22690
C          9.59560        0.33500        0.32260
C          8.51030        1.17790        0.30950
N          7.30570        0.64930        0.20210
H         10.57820        0.76160        0.41000
H          8.63590        2.27460        0.38690
H         -6.50090        3.32740       -1.44730
H          8.62930       -3.69560        0.00730
