51

C          6.22900       -2.58140       -0.67140
C          5.18300       -1.71740       -0.32580
C          5.44730       -0.41010       -0.02250
C          6.75280        0.07190       -0.05900
C          7.75530       -0.80620       -0.40330
C          7.51520       -2.12710       -0.71010
C          4.63700        0.66160        0.32260
C          5.49170        1.76570        0.47580
N          6.75360        1.36820        0.23970
C          5.01640        3.02570        0.78720
C          3.66540        3.18050        0.94860
C          2.82710        2.10690        0.80500
C          3.29540        0.80140        0.48720
H          1.75560        2.19300        0.93040
H          7.60180        1.96320        0.27970
H          3.21660        4.14000        1.19150
H          4.23510       -2.16810       -0.36940
H          8.77890       -0.41130       -0.42640
H          8.34330       -2.76730       -0.97170
H          6.05660       -3.62060       -0.91540
C         -3.34670       -1.26940       -0.16500
N         -3.00550       -2.56490        0.12610
O         -1.73610       -2.66570        0.34250
C         -1.14210       -1.50770        0.22220
C         -2.14270       -0.61770       -0.09780
C          0.28400       -1.25090        0.39760
N          1.25860       -2.13010        0.71150
O          2.38560       -1.51470        0.77430
C          2.34040       -0.26660        0.53770
C          0.94340       -0.05200        0.27990
H          0.52930        0.89860        0.03680
H         -2.00110        0.44750       -0.28880
C         -4.68580       -0.89270       -0.57330
C         -5.50680       -0.00510        0.07010
C         -6.78330        0.25270       -0.45850
C         -7.24660       -0.36360       -1.61140
C         -6.43530       -1.25260       -2.25510
C         -5.19560       -1.50040       -1.74080
C         -7.60070        1.12860        0.22040
C         -7.18710        1.73260        1.38300
C         -5.95260        1.48050        1.89970
C         -5.09100        0.59650        1.23890
O         -3.84470        0.35320        1.79620
H         -5.58650        1.92680        2.80460
H         -6.76070       -1.76870       -3.17380
H         -4.53880       -2.20140       -2.23610
H         -7.82340        2.43390        1.93790
H         -8.57280        1.34630       -0.15700
H         -3.57880        0.81080        2.64850
H          5.70010        3.85730        0.89770
H         -8.23370       -0.10970       -1.94800
