
     RDKit          3D

  0  0  0  0  0  0  0  0  0  0999 V3000
M  V30 BEGIN CTAB
M  V30 COUNTS 84 90 0 0 0
M  V30 BEGIN ATOM
M  V30 1 C 9.2944 -0.0935 -3.2629 0
M  V30 2 C 8.4749 -0.1058 -2.1414 0
M  V30 3 C 9.0300 0.1469 -0.9207 0
M  V30 4 C 10.3988 0.4176 -0.8093 0
M  V30 5 C 11.1870 0.4240 -1.9299 0
M  V30 6 C 10.6523 0.1718 -3.1530 0
M  V30 7 C 8.4876 0.2348 0.3500 0
M  V30 8 C 9.5450 0.5703 1.2091 0
M  V30 9 N 10.6700 0.6668 0.4752 0
M  V30 10 C 9.3576 0.7826 2.5646 0
M  V30 11 C 8.0909 0.6567 3.0807 0
M  V30 12 C 7.0555 0.3228 2.2490 0
M  V30 13 C 7.2379 0.1005 0.8595 0
M  V30 14 H 6.0351 0.2122 2.6004 0
M  V30 15 H 11.6035 0.9015 0.8644 0
M  V30 16 H 7.9038 0.8186 4.1534 0
M  V30 17 H 7.4475 -0.2675 -2.3329 0
M  V30 18 H 12.2530 0.6399 -1.7796 0
M  V30 19 H 11.2882 0.1794 -4.0116 0
M  V30 20 H 8.9060 -0.2908 -4.2367 0
M  V30 21 S 1.2185 -0.3940 -0.2562 0
M  V30 22 C -0.2403 -1.0088 -0.8135 0
M  V30 23 N 0.1859 -2.1111 -1.5312 0
M  V30 24 N 1.4093 -2.1592 -1.4491 0
M  V30 25 C 2.3902 -1.7961 -1.1095 0
M  V30 26 C 3.7485 -1.2869 -0.6337 0
M  V30 27 N 4.8782 -1.8519 -1.1281 0
M  V30 28 N 5.9826 -1.4373 -0.7369 0
M  V30 29 C 6.1101 -0.4696 0.1412 0
M  V30 30 S 4.4038 -0.1589 0.3992 0
M  V30 31 C -3.9817 1.8624 0.6371 0
M  V30 32 C -5.3422 2.2033 0.5435 0
M  V30 33 C -6.1913 1.4319 -0.2071 0
M  V30 34 C -5.6972 0.3211 -0.8687 0
M  V30 35 C -4.3614 -0.0246 -0.7873 0
M  V30 36 C -3.4536 0.7505 -0.0157 0
M  V30 37 C -3.8998 -1.1019 -1.5003 0
M  V30 38 C -2.5445 -1.3921 -1.4406 0
M  V30 39 C -1.6578 -0.6525 -0.7026 0
M  V30 40 C -2.1226 0.4114 0.0100 0
M  V30 41 N -1.2359 1.1111 0.9027 0
M  V30 42 C -0.9520 0.5096 2.0575 0
M  V30 43 C -0.0502 1.1681 3.0147 0
M  V30 44 N -4.7802 -1.8913 -2.2750 0
M  V30 45 C -4.6381 -2.1680 -3.5195 0
M  V30 46 C -3.4873 -1.6601 -4.3140 0
M  V30 47 N -6.5798 -0.4962 -1.6345 0
M  V30 48 C -7.6298 -1.0358 -1.0665 0
M  V30 49 C -8.5623 -1.8923 -1.8542 0
M  V30 50 N -3.1715 2.7390 1.3651 0
M  V30 51 C -3.4337 3.0882 2.5638 0
M  V30 52 C -2.5404 4.0401 3.3007 0
M  V30 53 C -4.5684 2.5540 3.3397 0
M  V30 54 C -1.5476 -0.7889 2.4374 0
M  V30 55 C -5.6634 -3.0490 -4.1865 0
M  V30 56 C -7.9578 -0.8446 0.3717 0
M  V30 57 H -5.7278 3.0818 1.0433 0
M  V30 58 H -2.2385 -2.2699 -2.0267 0
M  V30 59 H -0.8400 -1.5896 2.1637 0
M  V30 60 H -2.5058 -0.8840 1.8794 0
M  V30 61 H -1.7142 -0.8126 3.5404 0
M  V30 62 H 0.9255 0.6138 3.1478 0
M  V30 63 H -0.5607 1.2548 4.0148 0
M  V30 64 H 0.2628 2.1846 2.7136 0
M  V30 65 H -5.4688 3.1819 3.3490 0
M  V30 66 H -4.2130 2.3976 4.4184 0
M  V30 67 H -4.8659 1.5117 3.0394 0
M  V30 68 H -2.0928 3.5263 4.1580 0
M  V30 69 H -1.8014 4.4095 2.5551 0
M  V30 70 H -3.1820 4.8912 3.5996 0
M  V30 71 H -8.4898 -2.9559 -1.5454 0
M  V30 72 H -9.5967 -1.5061 -1.7713 0
M  V30 73 H -8.2929 -1.7711 -2.9353 0
M  V30 74 H -8.4414 -1.8032 0.7264 0
M  V30 75 H -8.7171 -0.0511 0.5437 0
M  V30 76 H -7.0606 -0.7383 1.0196 0
M  V30 77 H -6.4034 -2.3729 -4.6670 0
M  V30 78 H -5.1252 -3.6516 -4.9536 0
M  V30 79 H -6.0967 -3.6824 -3.3851 0
M  V30 80 H -3.1254 -0.6908 -3.9201 0
M  V30 81 H -3.8454 -1.5168 -5.3780 0
M  V30 82 H -2.7015 -2.4386 -4.3219 0
M  V30 83 H 10.1991 1.0456 3.2122 0
M  V30 84 H -7.2353 1.6280 -0.3203 0
M  V30 END ATOM
M  V30 BEGIN BOND
M  V30 0 1 1 20
M  V30 1 1 2 17
M  V30 2 2 2 1
M  V30 3 1 3 2
M  V30 4 2 4 3
M  V30 5 1 4 5
M  V30 6 2 5 6
M  V30 7 1 6 1
M  V30 8 1 6 19
M  V30 9 1 7 3
M  V30 10 1 8 9
M  V30 11 2 8 7
M  V30 12 1 9 4
M  V30 13 1 10 8
M  V30 14 2 11 10
M  V30 15 1 11 12
M  V30 16 2 12 13
M  V30 17 1 13 7
M  V30 18 1 14 12
M  V30 19 1 15 9
M  V30 20 1 16 11
M  V30 21 1 18 5
M  V30 22 1 21 22
M  V30 23 1 21 25
M  V30 24 2 22 23
M  V30 25 1 23 24
M  V30 26 2 25 24
M  V30 27 1 26 25
M  V30 28 1 26 30
M  V30 29 1 27 28
M  V30 30 2 27 26
M  V30 31 2 28 29
M  V30 32 1 29 30
M  V30 33 1 31 36
M  V30 34 1 31 50
M  V30 35 2 32 31
M  V30 36 2 33 34
M  V30 37 1 33 32
M  V30 38 1 34 35
M  V30 39 2 35 37
M  V30 40 1 35 36
M  V30 41 2 36 40
M  V30 42 1 37 38
M  V30 43 1 38 58
M  V30 44 2 38 39
M  V30 45 1 40 39
M  V30 46 1 40 41
M  V30 47 2 41 42
M  V30 48 1 42 54
M  V30 49 1 43 63
M  V30 50 1 43 42
M  V30 51 1 43 62
M  V30 52 2 44 45
M  V30 53 1 44 37
M  V30 54 1 45 55
M  V30 55 1 46 80
M  V30 56 1 46 45
M  V30 57 1 47 34
M  V30 58 2 48 47
M  V30 59 1 49 48
M  V30 60 1 49 73
M  V30 61 2 50 51
M  V30 62 1 51 53
M  V30 63 1 52 51
M  V30 64 1 52 69
M  V30 65 1 53 66
M  V30 66 1 53 67
M  V30 67 1 54 60
M  V30 68 1 54 59
M  V30 69 1 55 77
M  V30 70 1 55 79
M  V30 71 1 56 75
M  V30 72 1 56 48
M  V30 73 1 57 32
M  V30 74 1 61 54
M  V30 75 1 64 43
M  V30 76 1 65 53
M  V30 77 1 68 52
M  V30 78 1 70 52
M  V30 79 1 71 49
M  V30 80 1 72 49
M  V30 81 1 74 56
M  V30 82 1 76 56
M  V30 83 1 78 55
M  V30 84 1 81 46
M  V30 85 1 82 46
M  V30 86 1 13 29
M  V30 87 1 22 39
M  V30 88 1 10 83
M  V30 89 1 33 84
M  V30 END BOND
M  V30 END CTAB
M  END

$$$$
