
 OpenBabel08201816253D

 17 19  0  0  0  0  0  0  0  0999 V2000
    1.5820    0.7938    0.0388 C   0  0  0  0  0  0  0  0  0  0  0  0
    2.8232    0.7938    0.5635 N   0  0  0  0  0  0  0  0  0  0  0  0
    2.9551    0.7938    1.9098 C   0  0  0  0  0  0  0  0  0  0  0  0
    1.7818    0.7938    2.7440 C   0  0  0  0  0  0  0  0  0  0  0  0
    0.5535    0.7938    2.1773 N   0  0  0  0  0  0  0  0  0  0  0  0
    0.4655    0.7938    0.8327 C   0  0  0  0  0  0  0  0  0  0  0  0
    4.2493    0.7938    2.4604 C   0  0  0  0  0  0  0  0  0  0  0  0
    4.3837    0.7938    3.8708 C   0  0  0  0  0  0  0  0  0  0  0  0
    3.1648    0.7938    4.7374 C   0  0  0  0  0  0  0  0  0  0  0  0
    1.8769    0.7938    4.1473 C   0  0  0  0  0  0  0  0  0  0  0  0
    3.4582    0.7938    6.0496 N   0  0  0  0  0  0  0  0  0  0  0  0
    5.1081    0.7938    6.1801 S   0  0  0  0  0  0  0  0  0  0  0  0
    5.5267    0.7938    4.5788 N   0  0  0  0  0  0  0  0  0  0  0  0
    0.3266    0.7938    5.2520 Br  0  0  0  0  0  0  0  0  0  0  0  0
    5.8019    0.7938    1.3589 Br  0  0  0  0  0  0  0  0  0  0  0  0
   -0.5355    0.7938    0.4170 H   0  0  0  0  0  0  0  0  0  0  0  0
    1.5182    0.7938   -1.0432 H   0  0  0  0  0  0  0  0  0  0  0  0
  1  2  2  0  0  0  0
  1  6  1  0  0  0  0
  2  3  1  0  0  0  0
  3  7  2  0  0  0  0
  3  4  1  0  0  0  0
  4 10  2  0  0  0  0
  5  4  1  0  0  0  0
  6  5  2  0  0  0  0
  7  8  1  0  0  0  0
  8 13  2  0  0  0  0
  8  9  1  0  0  0  0
  9 11  2  0  0  0  0
 10  9  1  0  0  0  0
 10 14  1  0  0  0  0
 11 12  1  0  0  0  0
 13 12  1  0  0  0  0
 15  7  1  0  0  0  0
 16  6  1  0  0  0  0
 17  1  1  0  0  0  0
M  END
