   47
Geometry Step: 1048
    C      4.50184495      0.63781801     -3.25257247      4.11559887
    C      4.02264055      0.54541303     -1.94850475      4.08032196
    C      4.93168234      0.63112562     -0.87667676      4.03001852
    C      6.31359970      0.79869214     -1.17348704      3.86719798
    C      6.79827726      0.89921926     -2.48662038      4.16508042
    C      5.87029086      0.81725221     -3.52151895      4.06747698
    C      4.82544864      0.55409303      0.57206632      4.04230614
    C      6.15830515      0.66049918      1.06991977      3.86866600
    N      7.03030541      0.82390956      0.00995130      5.17476016
    C      6.47686753      0.58029176      2.43343670      4.15977302
    C      5.42675751      0.37033842      3.32487936      4.07252331
    C      4.10802590      0.25967020      2.86755070      4.13524036
    C      3.76801863      0.36457637      1.50464682      3.97671215
    H      3.31289065      0.11234823      3.59488693      0.91499049
    H      8.03618012      0.91095707      0.08753221      0.78430279
    H      5.62900445      0.29439940      4.38933221      0.91656085
    H      2.96017074      0.41243768     -1.76693223      0.89650915
    H      7.85840402      1.03061275     -2.68613757      0.91824873
    H      6.20802060      0.89043135     -4.55191650      0.92210920
    H      3.80412925      0.57321869     -4.08306218      0.91991815
    S     -2.66113045      0.13925358     -0.13350084      6.02005446
    C     -1.45027059     -0.36831323      1.04776975      3.84550068
    N     -1.95449428     -1.09077734      2.04889349      5.17686283
    N     -3.29284333     -1.28398987      1.94974544      5.15405188
    C     -3.84687364     -0.71761779      0.87499026      3.81839727
    C     -0.05029815     -0.03574542      0.94137095      3.83261621
    N      0.46530666      0.68755252     -0.04609671      5.18176963
    N      1.81371088      0.87150253      0.06537767      5.18358546
    C      2.35277866      0.29216792      1.12922933      3.80757164
    S      1.15113515     -0.55703684      2.13095601      6.03726583
    C     -6.90849416      0.99156216     -2.78718891      3.91432136
    N     -7.75266787      0.34442663     -2.01149066      5.26198015
    C     -7.24035539     -0.26991322     -0.87446092      3.84335600
    C     -5.81923150     -0.18702988     -0.57349403      3.88367405
    N     -4.98122498      0.50669369     -1.42541956      5.23541733
    C     -5.50407636      1.07588112     -2.49347080      3.92045508
    C     -8.11088387     -0.96264085     -0.03399237      4.17269961
    C     -7.60418162     -1.59828191      1.13539495      3.82901064
    C     -6.16205424     -1.52267947      1.45446054      3.84645694
    C     -5.26363025     -0.79996561      0.57448024      4.04640097
    N     -5.75941959     -2.13747449      2.55873416      5.22269136
    S     -7.27513375     -2.90416271      3.32062698      5.81245092
    N     -8.38186783     -2.27608359      1.98038436      5.25618805
    H     -4.82975854      1.62388483     -3.16242783      0.93324589
    H     -7.30838145      1.47809948     -3.68577576      0.93664528
    H      7.50342381      0.66765280      2.77793074      0.91466602
    H     -9.16984756     -1.01736903     -0.26959996      0.88434922
