45

C         -4.61260        0.81950        2.37940
C         -3.81200        0.39380        1.31970
C         -4.38340       -0.11770        0.19170
C         -5.77460       -0.20600        0.13430
C         -6.56810        0.21090        1.17440
C         -5.97530        0.72940        2.30740
C         -3.89730       -0.63850       -0.98240
C         -5.00900       -1.04620       -1.73330
N         -6.11350       -0.76640       -1.02730
C         -4.88610       -1.65760       -2.96550
C         -3.62180       -1.85400       -3.43800
C         -2.56090       -1.45560       -2.71550
C         -2.64880       -0.81800       -1.44000
H         -1.56870       -1.62850       -3.12520
H         -7.10170       -0.96000       -1.34240
H         -3.48750       -2.33130       -4.39550
H         -2.79770        0.45010        1.48570
H         -7.65000        0.12940        1.09610
H         -6.62920        1.04950        3.10570
H         -4.18320        1.22990        3.28210
N          3.14530        1.08130        0.69310
C          1.90430        1.47700        0.72280
C          1.62540        2.64240        1.39060
S          3.18920        3.09580        1.93780
C          4.06680        1.79740        1.29130
C          0.82470        0.70700        0.06440
S         -0.83630        1.03350       -0.02060
C         -1.39710       -0.27360       -0.91950
C         -0.15720       -0.95210       -1.12330
N          0.88120       -0.41820       -0.61690
H          0.64180        3.12990        1.52090
H         -0.13290       -1.90420       -1.70150
C          8.05810        1.49090        1.78910
S          6.69390        2.45170        2.14470
C          5.49790        1.52660        1.37090
C          6.20010        0.47880        0.84810
C          7.51930        0.45380        1.05960
N          5.65020       -0.55200        0.12050
C          6.36270       -1.56450       -0.37890
C          7.71650       -1.58180       -0.15680
N          8.26340       -0.58830        0.54740
H          5.86530       -2.35720       -0.95130
H          8.33380       -2.37750       -0.53940
H         -5.75780       -1.96420       -3.52450
H          9.12280        1.63500        2.06070
