56

C          7.85780        0.22360       -2.77550
C          6.80840        0.16750       -1.84200
C          7.00410       -0.40590       -0.62900
C          8.27010       -0.93450       -0.35100
C          9.28730       -0.86940       -1.28260
C          9.09570       -0.28870       -2.50830
C          6.17820       -0.62420        0.46380
C          6.98080       -1.30130        1.39300
N          8.21850       -1.46980        0.88140
C          6.44070       -1.69410        2.58890
C          5.13140       -1.42990        2.88060
C          4.36790       -0.75970        1.95120
C          4.87530       -0.33350        0.71020
H          3.33600       -0.56900        2.22610
H          9.01970       -1.94040        1.35780
H          4.68040       -1.73740        3.82980
H          5.86820        0.55290       -2.15080
H         10.23710       -1.29520       -1.00220
H          9.88560       -0.22560       -3.25800
H          7.64050        0.69850       -3.73300
C         -1.57200        1.33590       -0.88100
N         -1.27430        2.28630       -1.77670
O          0.02970        2.36770       -1.84910
C          0.59730        1.51480       -1.04240
C         -0.40580        0.83350       -0.40300
C          2.04370        1.29540       -0.83060
N          3.05630        1.92260       -1.41890
O          4.15480        1.43620       -0.95620
C          4.01020        0.50410       -0.07710
C          2.59670        0.39490        0.02100
H          2.07590       -0.30780        0.67700
H         -0.33110        0.05020        0.33640
C         -4.12200        1.40170       -0.95170
C         -5.24800        0.86950       -0.45330
C         -5.09390       -0.12400        0.48460
S         -3.41890       -0.28240        0.63980
C         -2.93310        0.91920       -0.49240
C         -6.22900       -0.79240        1.11140
C         -7.52870       -0.49410        0.82550
C         -7.71500        0.58260       -0.19110
O         -6.59150        1.12810       -0.70190
C         -8.47890       -1.19600        1.48450
C         -8.04450       -2.13770        2.37470
S         -6.34220       -2.02230        2.27150
C         -8.59870        1.69050        0.37240
H         -4.13010        2.20890       -1.71340
H         -9.58340       -1.06010        1.35260
H         -8.42220        2.57650       -0.26750
H         -9.66890        1.41070        0.29520
H         -8.25310        1.89690        1.38460
C         -8.45890       -0.11710       -1.34650
H         -7.69090       -0.82990       -1.76570
H         -8.64870        0.63360       -2.11470
H         -9.34380       -0.65190       -0.97950
H          7.05180       -2.21100        3.29660
H         -8.67270       -2.79680        2.99440
