
     RDKit          3D

  0  0  0  0  0  0  0  0  0  0999 V3000
M  V30 BEGIN CTAB
M  V30 COUNTS 56 63 0 0 0
M  V30 BEGIN ATOM
M  V30 1 C 7.8578 0.2236 -2.7755 0
M  V30 2 C 6.8084 0.1675 -1.8420 0
M  V30 3 C 7.0041 -0.4059 -0.6290 0
M  V30 4 C 8.2701 -0.9345 -0.3510 0
M  V30 5 C 9.2873 -0.8694 -1.2826 0
M  V30 6 C 9.0957 -0.2887 -2.5083 0
M  V30 7 C 6.1782 -0.6242 0.4638 0
M  V30 8 C 6.9808 -1.3013 1.3930 0
M  V30 9 N 8.2185 -1.4698 0.8814 0
M  V30 10 C 6.4407 -1.6941 2.5889 0
M  V30 11 C 5.1314 -1.4299 2.8806 0
M  V30 12 C 4.3679 -0.7597 1.9512 0
M  V30 13 C 4.8753 -0.3335 0.7102 0
M  V30 14 H 3.3360 -0.5690 2.2261 0
M  V30 15 H 9.0197 -1.9404 1.3578 0
M  V30 16 H 4.6804 -1.7374 3.8298 0
M  V30 17 H 5.8682 0.5529 -2.1508 0
M  V30 18 H 10.2371 -1.2952 -1.0022 0
M  V30 19 H 9.8856 -0.2256 -3.2580 0
M  V30 20 H 7.6405 0.6985 -3.7330 0
M  V30 21 C -1.5720 1.3359 -0.8810 0
M  V30 22 N -1.2743 2.2863 -1.7767 0
M  V30 23 O 0.0297 2.3677 -1.8491 0
M  V30 24 C 0.5973 1.5148 -1.0424 0
M  V30 25 C -0.4058 0.8335 -0.4030 0
M  V30 26 C 2.0437 1.2954 -0.8306 0
M  V30 27 N 3.0563 1.9226 -1.4189 0
M  V30 28 O 4.1548 1.4362 -0.9562 0
M  V30 29 C 4.0102 0.5041 -0.0771 0
M  V30 30 C 2.5967 0.3949 0.0210 0
M  V30 31 H 2.0759 -0.3078 0.6770 0
M  V30 32 H -0.3311 0.0502 0.3364 0
M  V30 33 C -4.1220 1.4017 -0.9517 0
M  V30 34 C -5.2480 0.8695 -0.4533 0
M  V30 35 C -5.0939 -0.1240 0.4846 0
M  V30 36 S -3.4189 -0.2824 0.6398 0
M  V30 37 C -2.9331 0.9192 -0.4924 0
M  V30 38 C -6.2290 -0.7924 1.1114 0
M  V30 39 C -7.5287 -0.4941 0.8255 0
M  V30 40 C -7.7150 0.5826 -0.1911 0
M  V30 41 O -6.5915 1.1281 -0.7019 0
M  V30 42 C -8.4789 -1.1960 1.4845 0
M  V30 43 C -8.0445 -2.1377 2.3747 0
M  V30 44 S -6.3422 -2.0223 2.2715 0
M  V30 45 C -8.5987 1.6905 0.3724 0
M  V30 46 H -4.1301 2.2089 -1.7134 0
M  V30 47 H -9.5834 -1.0601 1.3526 0
M  V30 48 H -8.4222 2.5765 -0.2675 0
M  V30 49 H -9.6689 1.4107 0.2952 0
M  V30 50 H -8.2531 1.8969 1.3846 0
M  V30 51 C -8.4589 -0.1171 -1.3465 0
M  V30 52 H -7.6909 -0.8299 -1.7657 0
M  V30 53 H -8.6487 0.6336 -2.1147 0
M  V30 54 H -9.3438 -0.6519 -0.9795 0
M  V30 55 H 7.0518 -2.2110 3.2966 0
M  V30 56 H -8.6727 -2.7968 2.9944 0
M  V30 END ATOM
M  V30 BEGIN BOND
M  V30 0 1 1 20
M  V30 1 1 2 17
M  V30 2 2 2 1
M  V30 3 1 3 2
M  V30 4 2 4 3
M  V30 5 1 4 5
M  V30 6 2 5 6
M  V30 7 1 6 1
M  V30 8 1 6 19
M  V30 9 1 7 3
M  V30 10 1 8 9
M  V30 11 2 8 7
M  V30 12 1 9 4
M  V30 13 1 10 8
M  V30 14 2 11 10
M  V30 15 1 11 12
M  V30 16 2 12 13
M  V30 17 1 13 7
M  V30 18 1 14 12
M  V30 19 1 15 9
M  V30 20 1 16 11
M  V30 21 1 18 5
M  V30 22 2 21 22
M  V30 23 1 23 22
M  V30 24 1 24 23
M  V30 25 1 25 21
M  V30 26 2 25 24
M  V30 27 1 26 24
M  V30 28 1 26 30
M  V30 29 2 27 26
M  V30 30 1 28 27
M  V30 31 1 28 29
M  V30 32 2 29 30
M  V30 33 1 30 31
M  V30 34 1 32 25
M  V30 35 1 33 34
M  V30 36 2 34 35
M  V30 37 1 34 41
M  V30 38 1 35 38
M  V30 39 1 36 35
M  V30 40 2 37 33
M  V30 41 1 37 36
M  V30 42 2 38 39
M  V30 43 1 38 44
M  V30 44 1 39 42
M  V30 45 1 40 51
M  V30 46 1 40 45
M  V30 47 1 40 39
M  V30 48 1 41 40
M  V30 49 2 42 43
M  V30 50 1 42 47
M  V30 51 1 44 43
M  V30 52 1 45 50
M  V30 53 1 46 33
M  V30 54 1 48 45
M  V30 55 1 49 45
M  V30 56 1 51 53
M  V30 57 1 52 51
M  V30 58 1 54 51
M  V30 59 1 13 29
M  V30 60 1 21 37
M  V30 61 1 10 55
M  V30 62 1 43 56
M  V30 END BOND
M  V30 END CTAB
M  END

$$$$
