49

C          5.50970        0.94310       -2.71880
C          4.90690        0.50810       -1.53990
C          5.69050       -0.06820       -0.57860
C          7.06690       -0.20340       -0.79420
C          7.65350        0.22130       -1.94330
C          6.85510        0.79710       -2.90520
C          5.42830       -0.56760        0.68120
C          6.65370       -0.99000        1.21360
N          7.59450       -0.75000        0.28870
C          6.70840       -1.50690        2.49680
C          5.58100       -1.62170        3.27590
C          4.41070       -1.21060        2.73360
C          4.29850       -0.67520        1.42080
H          3.50850       -1.28060        3.30120
H          8.60330       -0.98180        0.44690
H          5.67430       -2.03230        4.28190
H          3.88370        0.69930       -1.46640
H          8.71850        0.10180       -2.08050
H          7.33220        1.12630       -3.80720
H          4.89160        1.40140       -3.48970
S         -2.40550       -0.00940       -0.16700
C         -1.10830        0.02750        0.92030
N         -1.75590        0.31010        2.03880
N         -2.99490        0.46200        2.03340
C         -3.68560        0.33700        0.87270
C          0.33160       -0.17340        0.79210
N          1.06060       -0.45780       -0.28040
N          2.30850       -0.58930       -0.15720
C          2.93800       -0.46620        0.94990
S          1.56040       -0.10850        1.98760
C         -7.94220        0.84660        0.78510
C         -7.24710        0.54810       -0.38800
C         -5.85930        0.37790       -0.38180
C         -5.14680        0.49860        0.76920
C         -5.87060        0.79820        1.92920
C         -7.22970        0.97040        1.95350
C         -5.26700        0.08940       -1.56990
C         -5.99330       -0.03340       -2.74240
C         -7.35350        0.13260       -2.75290
C         -7.95760        0.42510       -1.55080
O         -9.34540        0.60790       -1.48720
H         -7.92120        0.03770       -3.66290
H         -5.31630        0.89590        2.84590
H         -7.77550        1.20360        2.86830
H         -5.49540       -0.26590       -3.68600
H         -4.21980       -0.05580       -1.65780
H         -9.92590        0.53210       -2.30090
H          7.65540       -1.83120        2.90670
H         -9.00750        0.97990        0.79510
