   45
Geometry Step: 1157
    C      5.47734327      0.84263663      2.61203574      4.11555968
    C      4.58814293      0.54704637      1.58192340      4.08002610
    C      5.07624906     -0.05790801      0.40804726      4.02986887
    C      6.46615261     -0.35306289      0.32671617      3.86777216
    C      7.36549626     -0.04994217      1.36034868      4.16628248
    C      6.84905630      0.55363471      2.50419012      4.06837195
    C      4.47935257     -0.52815976     -0.83277795      4.04325984
    C      5.54520456     -1.10010193     -1.58924875      3.86844006
    N      6.72728663     -0.96936356     -0.88465218      5.17576625
    C      5.35899767     -1.70908487     -2.83897794      4.16308161
    C      4.05916512     -1.75979865     -3.33829521      4.07352005
    C      2.99144172     -1.20920632     -2.61883106      4.13755601
    C      3.16509421     -0.57146719     -1.37516009      3.97449585
    H      1.99311808     -1.25445833     -3.04806782      0.91560207
    H      7.63226707     -1.30330079     -1.19249981      0.78504669
    H      3.86787346     -2.22873120     -4.29929530      0.91823515
    H      3.53398428      0.78625197      1.68688056      0.89475313
    H      8.42335559     -0.28259789      1.27155786      0.91913209
    H      7.51494851      0.80329137      3.32608674      0.92275374
    H      5.10567993      1.31069533      3.51944858      0.91939294
    S     -2.89007050     -0.08812504     -0.31121990      6.03921012
    C     -4.01945908      0.90113567      0.62828340      3.79146780
    N     -3.41549585      1.84422010      1.34382675      5.20695283
    N     -2.05663610      1.85357959      1.20602959      5.15749763
    C     -1.60595103      0.91588190      0.38151926      3.85394974
    C     -0.20626245      0.71431304      0.06639220      3.82798701
    N      0.78666212      1.44441517      0.55449637      5.16770477
    N      2.01836439      1.05385304      0.10559003      5.18544153
    C      1.99379771      0.02246287     -0.72288876      3.80612078
    S      0.33724497     -0.56262542     -1.03667283      6.07474410
    C     -7.69023540      1.36871396      1.40898142      4.22451831
    C     -8.27271710      0.35224994      0.63057408      3.76752206
    C     -7.45994510     -0.48255298     -0.14734023      3.87823726
    C     -6.06849503     -0.31112575     -0.15489521      3.76618044
    C     -5.46503041      0.70542145      0.62138008      4.07419081
    C     -6.30453474      1.53465380      1.39753340      4.10233275
    O     -5.31465599     -1.14174199     -0.92303827      6.44106442
    O     -8.01569637     -1.48794716     -0.91947154      6.50563022
    O     -9.62979247      0.13819451      0.59917597      6.49236872
    H     -5.85121533      2.31751914      1.99653528      0.89046966
    H     -5.91122377     -1.76187265     -1.37178130      0.62781122
    H     -8.97638333     -1.45470433     -0.78881177      0.62110315
    H    -10.07871103      0.77363905      1.17303969      0.63589931
    H      6.19433486     -2.13317840     -3.38902002      0.91563951
    H     -8.31790279      2.01734766      2.01295330      0.90703915
