
     RDKit          3D

  0  0  0  0  0  0  0  0  0  0999 V3000
M  V30 BEGIN CTAB
M  V30 COUNTS 45 50 0 0 0
M  V30 BEGIN ATOM
M  V30 1 C 5.9243 0.6674 2.4406 0
M  V30 2 C 4.8829 0.4498 1.5241 0
M  V30 3 C 5.1389 -0.1941 0.3412 0
M  V30 4 C 6.4565 -0.6134 0.1104 0
M  V30 5 C 7.4668 -0.3905 1.0253 0
M  V30 6 C 7.2116 0.2560 2.2073 0
M  V30 7 C 4.3881 -0.5870 -0.7443 0
M  V30 8 C 5.2596 -1.2427 -1.6090 0
M  V30 9 N 6.4778 -1.2375 -1.0697 0
M  V30 10 C 4.7884 -1.7853 -2.7770 0
M  V30 11 C 3.4458 -1.6677 -3.0722 0
M  V30 12 C 2.6153 -1.0231 -2.2208 0
M  V30 13 C 3.0755 -0.4468 -1.0020 0
M  V30 14 H 1.5637 -0.9493 -2.4842 0
M  V30 15 H 7.3330 -1.6602 -1.4999 0
M  V30 16 H 3.0782 -2.0968 -3.9872 0
M  V30 17 H 3.9090 0.7522 1.7886 0
M  V30 18 H 8.4662 -0.7285 0.8038 0
M  V30 19 H 8.0108 0.4179 2.9052 0
M  V30 20 H 5.6633 1.1708 3.3442 0
M  V30 21 S -2.7377 0.5655 0.2034 0
M  V30 22 C -4.1511 1.2443 0.7921 0
M  V30 23 N -3.6907 2.2914 1.4830 0
M  V30 24 N -2.4801 2.3617 1.4308 0
M  V30 25 C -1.4893 1.9185 1.0395 0
M  V30 26 C -0.2028 1.3424 0.5310 0
M  V30 27 N 0.9872 1.9374 0.8551 0
M  V30 28 N 2.0390 1.4134 0.4309 0
M  V30 29 C 2.0917 0.3519 -0.2923 0
M  V30 30 S 0.3527 0.0662 -0.3736 0
M  V30 31 C -7.8832 1.1585 0.9813 0
M  V30 32 C -8.1789 0.0293 0.2535 0
M  V30 33 C -7.1163 -0.6945 -0.2932 0
M  V30 34 C -5.8122 -0.2953 -0.1118 0
M  V30 35 C -5.5677 0.8369 0.6225 0
M  V30 36 C -6.5629 1.5767 1.1752 0
M  V30 37 O -4.7577 -1.0189 -0.6610 0
M  V30 38 O -7.4009 -1.8336 -1.0293 0
M  V30 39 O -9.4858 -0.3889 0.0589 0
M  V30 40 H -6.4226 2.4722 1.7581 0
M  V30 41 H -4.8971 -1.8529 -1.2116 0
M  V30 42 H -8.3452 -2.1381 -1.1660 0
M  V30 43 H -10.2513 0.1126 0.4403 0
M  V30 44 H 5.5097 -2.2925 -3.4211 0
M  V30 45 H -8.7023 1.7447 1.4205 0
M  V30 END ATOM
M  V30 BEGIN BOND
M  V30 0 1 1 20
M  V30 1 1 2 17
M  V30 2 2 2 1
M  V30 3 1 3 2
M  V30 4 2 4 3
M  V30 5 1 4 5
M  V30 6 2 5 6
M  V30 7 1 6 1
M  V30 8 1 6 19
M  V30 9 1 7 3
M  V30 10 1 8 9
M  V30 11 2 8 7
M  V30 12 1 9 4
M  V30 13 1 10 8
M  V30 14 2 11 10
M  V30 15 1 11 12
M  V30 16 2 12 13
M  V30 17 1 13 7
M  V30 18 1 14 12
M  V30 19 1 15 9
M  V30 20 1 16 11
M  V30 21 1 18 5
M  V30 22 1 21 22
M  V30 23 1 21 25
M  V30 24 2 22 23
M  V30 25 1 23 24
M  V30 26 2 25 24
M  V30 27 1 26 25
M  V30 28 1 26 30
M  V30 29 1 27 28
M  V30 30 2 27 26
M  V30 31 2 28 29
M  V30 32 1 29 30
M  V30 33 2 31 32
M  V30 34 1 31 36
M  V30 35 1 32 33
M  V30 36 2 33 34
M  V30 37 1 33 38
M  V30 38 1 34 37
M  V30 39 1 35 34
M  V30 40 2 36 35
M  V30 41 1 37 41
M  V30 42 1 39 32
M  V30 43 1 40 36
M  V30 44 1 42 38
M  V30 45 1 43 39
M  V30 46 1 13 29
M  V30 47 1 22 35
M  V30 48 1 10 44
M  V30 49 1 31 45
M  V30 END BOND
M  V30 END CTAB
M  END

$$$$
