64

C          8.56670        3.26810        0.56660
C          7.77580        2.11660        0.46890
C          8.34700        0.98540       -0.04800
C          9.69040        1.00960       -0.46700
C         10.44050        2.16010       -0.35730
C          9.87410        3.28920        0.16190
C          7.82120       -0.27350       -0.29940
C          8.87770       -0.98390       -0.88210
N          9.97210       -0.20640       -0.96870
C          8.72590       -2.27720       -1.32350
C          7.48630       -2.85310       -1.17230
C          6.44580       -2.16830       -0.59970
C          6.59350       -0.83990       -0.13630
H          5.46390       -2.60840       -0.48190
H         10.92340       -0.43610       -1.34720
H          7.37120       -3.88730       -1.52880
H          6.75580        2.17690        0.75620
H         11.47690        2.17410       -0.68600
H         10.46350        4.18730        0.24390
H          8.09190        4.13960        0.98570
S          0.68080       -0.13100        0.91840
C         -0.77180        0.19510        1.68290
N         -0.35740        0.68250        2.83460
N          0.86040        0.72020        2.92890
C          1.86350        0.51220        2.44560
C          3.19450        0.21930        1.76640
N          4.34520        0.55280        2.39940
N          5.43430        0.29990        1.85380
C          5.51570       -0.28630        0.66800
S          3.79370       -0.45620        0.38530
C         -6.59790       -2.39830        0.86380
C         -7.02710       -1.11950        0.51400
C         -8.35380       -0.77620        0.78100
C         -9.25620       -1.62400        1.36480
C         -8.79070       -2.89030        1.69860
C         -7.49130       -3.25560        1.44810
N         -6.11210       -0.28360       -0.11910
C         -6.49700        0.50010       -1.24900
C         -7.24750        0.01390       -2.28600
C         -7.59950        0.83870       -3.36730
C         -7.18290        2.16310       -3.38870
C         -6.42930        2.62830       -2.33800
C         -6.07930        1.83360       -1.27670
C         -4.76720       -0.15710        0.36960
C         -4.47420        0.05100        1.68970
C         -3.17270        0.15780        2.13920
C         -2.17520        0.04580        1.21500
C         -2.44470       -0.16490       -0.11900
C         -3.73380       -0.27120       -0.57580
H         -5.31070        0.12840        2.41120
H         -2.98410        0.33480        3.16990
H         -1.64020       -0.24480       -0.85150
H         -4.00320       -0.44250       -1.62360
H         -7.58860       -1.00200       -2.31810
H         -8.20440        0.42430       -4.16550
H         -7.44530        2.81110       -4.21660
H         -6.09800        3.67190       -2.34730
H         -5.48430        2.18520       -0.44520
H         -8.64910        0.23370        0.48980
H        -10.25820       -1.34350        1.55420
H         -7.10670       -4.25020        1.70370
H         -5.58410       -2.66030        0.67210
H          9.54440       -2.83120       -1.77130
H         -9.47720       -3.58800        2.15660
