   49
Geometry Step: 2144
    C     -3.94274693     -3.21151795      0.48755773      4.11482837
    C     -3.82717757     -1.83100934      0.34203264      4.08608033
    C     -4.88385835     -1.00705964      0.77178862      4.03284878
    C     -6.05143048     -1.62088339      1.30634612      3.86656406
    C     -6.16655118     -3.01073760      1.46194814      4.16409941
    C     -5.09150172     -3.79518014      1.05035686      4.07129733
    C     -5.14111090      0.42371274      0.75292410      4.06285435
    C     -6.46798576      0.59432344      1.24131854      3.86464766
    N     -6.98543633     -0.64004036      1.59292397      5.17658044
    C     -7.10102478      1.84556586      1.30077581      4.17270289
    C     -6.38257180      2.94671202      0.83799750      4.07103644
    C     -5.07032211      2.80949031      0.36462124      4.14294398
    C     -4.41038216      1.56713867      0.33571112      3.94240959
    H     -4.53169817      3.69557763      0.03769940      0.91569016
    H     -7.91809297     -0.80313484      1.95191970      0.78517791
    H     -6.84082338      3.93180197      0.85355800      0.91970483
    H     -2.93652163     -1.40930455     -0.11441547      0.91158969
    H     -7.06512707     -3.45802823      1.87854990      0.91862646
    H     -5.14551345     -4.87560796      1.15408103      0.92216418
    H     -3.13013656     -3.85299606      0.15809286      0.91942753
    N      1.68729240      1.67753745     -1.48696236      5.30119018
    C      0.45277990      2.24093410     -1.78356205      3.85197192
    C      0.46706211      3.16020812     -2.82092083      4.16299225
    S      2.08075575      3.33784387     -3.46023199      6.01089837
    C      2.64663190      2.13986271     -2.26799473      3.78816305
    C     -0.72501762      1.84774843     -1.02207699      3.80825713
    S     -2.34109381      2.51989088     -1.35396094      6.05290761
    C     -3.00052847      1.50755315     -0.06878488      3.99191512
    C     -1.97125983      0.78339432      0.50508892      3.98838481
    N     -0.71827904      0.97366666     -0.02859247      5.28503801
    H     -0.37673090      3.71395615     -3.21325961      0.88682324
    H     -2.09517351      0.11830687      1.35681714      0.91343231
    S     10.70589568     -2.38897126      0.61676996      6.08597805
    C      9.08644590     -1.71909420      0.30712305      3.96160744
    C      8.05570817     -2.15310709      1.07563489      3.96190183
    S      8.39950334     -3.36045890      2.33678914      6.08399427
    C     10.20992269     -3.50345847      2.00304825      4.01446805
    S      6.44335766     -1.48066537      0.76113438      6.02237802
    C      6.98440102     -0.41899402     -0.57823704      3.98463212
    S      8.73651596     -0.51428472     -0.94951372      6.03122962
    C      6.13293520      0.39227309     -1.25647799      3.98342189
    S      6.66355736      1.45520573     -2.59455102      6.00449618
    C      5.07039522      2.13359330     -2.92180741      4.11347914
    C      4.02567871      1.70918727     -2.16023329      3.97617375
    S      4.38522107      0.49836388     -0.89859049      6.00835895
    H     10.45832699     -4.54094035      1.75001352      0.92814543
    H     10.77402811     -3.24303116      2.90640967      0.92812942
    H     -8.11484716      1.94816070      1.67705564      0.91574868
    H      4.96612849      2.86649627     -3.71641458      0.89260881
