49

C          5.18470        1.54090       -2.35490
C          4.42430        0.89380       -1.38760
C          5.05790        0.16010       -0.42270
C          6.44630        0.06310       -0.40310
C          7.16390        0.71740       -1.37650
C          6.56150        1.45750       -2.35730
C          4.60550       -0.56560        0.66580
C          5.75240       -1.07060        1.30930
N          6.84460       -0.67360        0.63700
C          5.62010       -1.81400        2.45660
C          4.39330       -2.07680        2.98910
C          3.29890       -1.58370        2.34970
C          3.35740       -0.81460        1.16740
H          2.30340       -1.77470        2.73460
H          7.82520       -0.92630        0.92130
H          4.29730       -2.67290        3.91230
H          3.39040        1.05770       -1.46140
H          8.25940        0.62770       -1.34440
H          7.16980        1.95640       -3.10620
H          4.72890        2.13110       -3.13820
C         -3.71730        0.52520        0.60900
N         -3.39240        0.27320        1.88430
O         -2.11580        0.03270        1.97140
C         -1.52660        0.10530        0.80620
C         -2.54170        0.42380       -0.09930
C         -0.13190       -0.08790        0.44450
N          0.43570       -0.00300       -0.77670
O          1.69690       -0.24210       -0.68090
C          2.12130       -0.49720        0.49820
C          0.92300       -0.40090        1.26720
H          0.80540       -0.53710        2.32770
H         -2.44640        0.56920       -1.16600
C         -6.09050       -2.52440       -0.72680
N         -5.33430       -1.48970       -0.29690
C         -5.76150       -0.20990       -0.41380
C         -6.98640        0.00580       -0.98240
N         -7.75420       -1.02670       -1.41760
C         -7.32080       -2.28990       -1.29660
C         -5.00270        0.84380        0.01860
C         -5.44240        2.17580       -0.10070
C         -6.64020        2.39750       -0.65600
C         -7.40990        1.30150       -1.09640
N         -7.03110        3.67370       -0.75580
S         -5.75320        4.53370       -0.08940
N         -4.75110        3.24480        0.30060
H         -7.91360       -3.12370       -1.63520
H         -5.74170       -3.55830       -0.63060
H          6.52210       -2.19030        2.93300
H         -8.38390        1.44220       -1.55060
