
     RDKit          3D

  0  0  0  0  0  0  0  0  0  0999 V3000
M  V30 BEGIN CTAB
M  V30 COUNTS 49 56 0 0 0
M  V30 BEGIN ATOM
M  V30 1 C 5.1847 1.5409 -2.3549 0
M  V30 2 C 4.4243 0.8938 -1.3876 0
M  V30 3 C 5.0579 0.1601 -0.4227 0
M  V30 4 C 6.4463 0.0631 -0.4031 0
M  V30 5 C 7.1639 0.7174 -1.3765 0
M  V30 6 C 6.5615 1.4575 -2.3573 0
M  V30 7 C 4.6055 -0.5656 0.6658 0
M  V30 8 C 5.7524 -1.0706 1.3093 0
M  V30 9 N 6.8446 -0.6736 0.6370 0
M  V30 10 C 5.6201 -1.8140 2.4566 0
M  V30 11 C 4.3933 -2.0768 2.9891 0
M  V30 12 C 3.2989 -1.5837 2.3497 0
M  V30 13 C 3.3574 -0.8146 1.1674 0
M  V30 14 H 2.3034 -1.7747 2.7346 0
M  V30 15 H 7.8252 -0.9263 0.9213 0
M  V30 16 H 4.2973 -2.6729 3.9123 0
M  V30 17 H 3.3904 1.0577 -1.4614 0
M  V30 18 H 8.2594 0.6277 -1.3444 0
M  V30 19 H 7.1698 1.9564 -3.1062 0
M  V30 20 H 4.7289 2.1311 -3.1382 0
M  V30 21 C -3.7173 0.5252 0.6090 0
M  V30 22 N -3.3924 0.2732 1.8843 0
M  V30 23 O -2.1158 0.0327 1.9714 0
M  V30 24 C -1.5266 0.1053 0.8062 0
M  V30 25 C -2.5417 0.4238 -0.0993 0
M  V30 26 C -0.1319 -0.0879 0.4445 0
M  V30 27 N 0.4357 -0.0030 -0.7767 0
M  V30 28 O 1.6969 -0.2421 -0.6809 0
M  V30 29 C 2.1213 -0.4972 0.4982 0
M  V30 30 C 0.9230 -0.4009 1.2672 0
M  V30 31 H 0.8054 -0.5371 2.3277 0
M  V30 32 H -2.4464 0.5692 -1.1660 0
M  V30 33 C -6.0905 -2.5244 -0.7268 0
M  V30 34 N -5.3343 -1.4897 -0.2969 0
M  V30 35 C -5.7615 -0.2099 -0.4138 0
M  V30 36 C -6.9864 0.0058 -0.9824 0
M  V30 37 N -7.7542 -1.0267 -1.4176 0
M  V30 38 C -7.3208 -2.2899 -1.2966 0
M  V30 39 C -5.0027 0.8438 0.0186 0
M  V30 40 C -5.4424 2.1758 -0.1007 0
M  V30 41 C -6.6402 2.3975 -0.6560 0
M  V30 42 C -7.4099 1.3015 -1.0964 0
M  V30 43 N -7.0311 3.6737 -0.7558 0
M  V30 44 S -5.7532 4.5337 -0.0894 0
M  V30 45 N -4.7511 3.2448 0.3006 0
M  V30 46 H -7.9136 -3.1237 -1.6352 0
M  V30 47 H -5.7417 -3.5583 -0.6306 0
M  V30 48 H 6.5221 -2.1903 2.9330 0
M  V30 49 H -8.3839 1.4422 -1.5506 0
M  V30 END ATOM
M  V30 BEGIN BOND
M  V30 0 1 1 20
M  V30 1 1 2 17
M  V30 2 2 2 1
M  V30 3 1 3 2
M  V30 4 2 4 3
M  V30 5 1 4 5
M  V30 6 2 5 6
M  V30 7 1 6 1
M  V30 8 1 6 19
M  V30 9 1 7 3
M  V30 10 1 8 9
M  V30 11 2 8 7
M  V30 12 1 9 4
M  V30 13 1 10 8
M  V30 14 2 11 10
M  V30 15 1 11 12
M  V30 16 2 12 13
M  V30 17 1 13 7
M  V30 18 1 14 12
M  V30 19 1 15 9
M  V30 20 1 16 11
M  V30 21 1 18 5
M  V30 22 2 21 22
M  V30 23 1 23 22
M  V30 24 1 24 23
M  V30 25 1 25 21
M  V30 26 2 25 24
M  V30 27 1 26 24
M  V30 28 1 26 30
M  V30 29 2 27 26
M  V30 30 1 28 27
M  V30 31 1 28 29
M  V30 32 2 29 30
M  V30 33 1 30 31
M  V30 34 1 32 25
M  V30 35 2 33 34
M  V30 36 1 33 38
M  V30 37 1 34 35
M  V30 38 2 35 39
M  V30 39 1 35 36
M  V30 40 2 36 42
M  V30 41 1 37 36
M  V30 42 2 38 37
M  V30 43 1 39 40
M  V30 44 2 40 45
M  V30 45 1 40 41
M  V30 46 2 41 43
M  V30 47 1 42 41
M  V30 48 1 43 44
M  V30 49 1 45 44
M  V30 50 1 46 38
M  V30 51 1 47 33
M  V30 52 1 13 29
M  V30 53 1 21 39
M  V30 54 1 10 48
M  V30 55 1 42 49
M  V30 END BOND
M  V30 END CTAB
M  END

$$$$
