
 OpenBabel09101814063D

 12 13  0  0  0  0  0  0  0  0999 V2000
    1.9299    0.5342   -1.0836 S   0  0  0  0  0  0  0  0  0  0  0  0
    3.3088    0.2136   -0.1238 C   0  0  0  0  0  0  0  0  0  0  0  0
    2.7319   -0.2737    0.9701 N   0  0  0  0  0  0  0  0  0  0  0  0
    1.4695   -0.3685    1.0262 N   0  0  0  0  0  0  0  0  0  0  0  0
    0.7308    0.0113    0.0113 C   0  0  0  0  0  0  0  0  0  0  0  0
    4.9709    0.4267   -0.4101 Br  0  0  0  0  0  0  0  0  0  0  0  0
   -0.7317   -0.0081   -0.1418 C   0  0  0  0  0  0  0  0  0  0  0  0
   -1.4778    0.3710   -1.1557 N   0  0  0  0  0  0  0  0  0  0  0  0
   -2.7351    0.2756   -1.0978 N   0  0  0  0  0  0  0  0  0  0  0  0
   -3.3145   -0.2125   -0.0021 C   0  0  0  0  0  0  0  0  0  0  0  0
   -1.9237   -0.5345    0.9626 S   0  0  0  0  0  0  0  0  0  0  0  0
   -4.9663   -0.4429    0.3270 Br  0  0  0  0  0  0  0  0  0  0  0  0
  1  2  1  0  0  0  0
  1  5  1  0  0  0  0
  2  3  2  0  0  0  0
  3  4  1  0  0  0  0
  5  4  2  0  0  0  0
  6  2  1  0  0  0  0
  7  5  1  0  0  0  0
  7 11  1  0  0  0  0
  8  9  1  0  0  0  0
  8  7  2  0  0  0  0
  9 10  2  0  0  0  0
 10 12  1  0  0  0  0
 10 11  1  0  0  0  0
M  END
