
     RDKit          3D

  0  0  0  0  0  0  0  0  0  0999 V3000
M  V30 BEGIN CTAB
M  V30 COUNTS 54 61 0 0 0
M  V30 BEGIN ATOM
M  V30 1 C -7.0017 2.2714 1.5884 0
M  V30 2 C -6.2984 1.3903 0.7973 0
M  V30 3 C -6.9142 0.8084 -0.2638 0
M  V30 4 C -8.2461 1.0807 -0.5783 0
M  V30 5 C -8.9173 1.9808 0.2523 0
M  V30 6 C -8.3284 2.5805 1.3245 0
M  V30 7 C -6.4918 -0.0723 -1.2794 0
M  V30 8 C -7.5517 -0.2808 -2.1407 0
M  V30 9 N -8.5838 0.4243 -1.6847 0
M  V30 10 C -7.4146 -1.0697 -3.2934 0
M  V30 11 C -6.2016 -1.6435 -3.5737 0
M  V30 12 C -5.1720 -1.4340 -2.7197 0
M  V30 13 C -5.3117 -0.6521 -1.5646 0
M  V30 14 H -4.1746 -1.8621 -2.8754 0
M  V30 15 H -9.5391 0.4598 -2.1181 0
M  V30 16 H -6.0440 -2.2746 -4.4646 0
M  V30 17 H -5.2791 1.2181 1.0188 0
M  V30 18 H -9.9665 2.2132 0.0303 0
M  V30 19 H -8.8645 3.2743 1.9451 0
M  V30 20 H -6.4906 2.7204 2.4332 0
M  V30 21 S 0.6784 -0.5040 -0.1669 0
M  V30 22 C 2.0937 -0.8723 0.6577 0
M  V30 23 N 1.6374 -1.5322 1.7655 0
M  V30 24 N 0.4027 -1.5584 1.6683 0
M  V30 25 C -0.5464 -1.3577 1.2058 0
M  V30 26 C -1.8951 -1.0723 0.5484 0
M  V30 27 N -3.0253 -1.2221 1.2492 0
M  V30 28 N -4.1224 -1.0516 0.6690 0
M  V30 29 C -4.2028 -0.7291 -0.6042 0
M  V30 30 S -2.4948 -0.6788 -0.9547 0
M  V30 31 C 9.0832 2.1185 -0.4437 0
M  V30 32 C 8.0989 1.3118 -0.0260 0
M  V30 33 C 6.8484 1.5070 -0.5659 0
M  V30 34 S 7.0880 2.8017 -1.6283 0
M  V30 35 C 8.7529 3.0736 -1.3778 0
M  V30 36 C 5.7129 0.6564 -0.1648 0
M  V30 37 C 5.7769 -0.3620 0.7257 0
M  V30 38 C 7.2003 -0.6854 1.1437 0
M  V30 39 O 8.1255 0.2797 0.9007 0
M  V30 40 C 4.6362 -0.9822 1.0623 0
M  V30 41 C 3.4917 -0.5287 0.4634 0
M  V30 42 S 4.0746 0.7557 -0.5508 0
M  V30 43 C 7.6074 -1.9890 0.4417 0
M  V30 44 H 10.1458 2.0729 -0.0997 0
M  V30 45 H 4.6259 -1.8255 1.7906 0
M  V30 46 H 6.7407 -2.4705 -0.0289 0
M  V30 47 H 8.3467 -1.7239 -0.3682 0
M  V30 48 H 8.1209 -2.6900 1.1080 0
M  V30 49 C 7.1792 -1.0443 2.6300 0
M  V30 50 H 6.5341 -0.3224 3.1735 0
M  V30 51 H 6.6507 -2.0223 2.7387 0
M  V30 52 H 8.2228 -1.0611 2.9748 0
M  V30 53 H -8.2228 -1.2477 -3.9693 0
M  V30 54 H 9.4254 3.8225 -1.8255 0
M  V30 END ATOM
M  V30 BEGIN BOND
M  V30 0 1 1 20
M  V30 1 1 2 17
M  V30 2 2 2 1
M  V30 3 1 3 2
M  V30 4 2 4 3
M  V30 5 1 4 5
M  V30 6 2 5 6
M  V30 7 1 6 1
M  V30 8 1 6 19
M  V30 9 1 7 3
M  V30 10 1 8 9
M  V30 11 2 8 7
M  V30 12 1 9 4
M  V30 13 1 10 8
M  V30 14 2 11 10
M  V30 15 1 11 12
M  V30 16 2 12 13
M  V30 17 1 13 7
M  V30 18 1 14 12
M  V30 19 1 15 9
M  V30 20 1 16 11
M  V30 21 1 18 5
M  V30 22 1 21 22
M  V30 23 1 21 25
M  V30 24 2 22 23
M  V30 25 1 23 24
M  V30 26 2 25 24
M  V30 27 1 26 25
M  V30 28 1 26 30
M  V30 29 1 27 28
M  V30 30 2 27 26
M  V30 31 2 28 29
M  V30 32 1 29 30
M  V30 33 1 31 32
M  V30 34 2 32 33
M  V30 35 1 32 39
M  V30 36 1 33 36
M  V30 37 1 34 33
M  V30 38 2 35 31
M  V30 39 1 35 34
M  V30 40 2 36 37
M  V30 41 1 36 42
M  V30 42 1 37 40
M  V30 43 1 38 49
M  V30 44 1 38 43
M  V30 45 1 38 37
M  V30 46 1 39 38
M  V30 47 2 40 41
M  V30 48 1 40 45
M  V30 49 1 42 41
M  V30 50 1 43 48
M  V30 51 1 44 31
M  V30 52 1 46 43
M  V30 53 1 47 43
M  V30 54 1 49 51
M  V30 55 1 50 49
M  V30 56 1 52 49
M  V30 57 1 13 29
M  V30 58 1 22 41
M  V30 59 1 10 53
M  V30 60 1 35 54
M  V30 END BOND
M  V30 END CTAB
M  END

$$$$
