
 OpenBabel09101815293D

 14 15  0  0  0  0  0  0  0  0999 V2000
   -1.7300    0.4824    0.9603 N   0  0  0  0  0  0  0  0  0  0  0  0
   -0.9751   -0.1290   -0.0362 C   0  0  0  0  0  0  0  0  0  0  0  0
   -1.7103   -0.8520   -0.9650 C   0  0  0  0  0  0  0  0  0  0  0  0
   -3.3920   -0.7485   -0.5578 S   0  0  0  0  0  0  0  0  0  0  0  0
   -3.0095    0.2313    0.7948 C   0  0  0  0  0  0  0  0  0  0  0  0
    0.5382    0.0077   -0.0714 C   0  0  0  0  0  0  0  0  0  0  0  0
    1.5823   -0.7055   -1.2590 S   0  0  0  0  0  0  0  0  0  0  0  0
    2.9324   -0.0225   -0.4822 C   0  0  0  0  0  0  0  0  0  0  0  0
    2.5361    0.6960    0.6136 C   0  0  0  0  0  0  0  0  0  0  0  0
    1.1750    0.7157    0.8507 N   0  0  0  0  0  0  0  0  0  0  0  0
    4.7198   -0.2023   -1.0156 Br  0  0  0  0  0  0  0  0  0  0  0  0
   -1.3298   -1.4030   -1.8170 H   0  0  0  0  0  0  0  0  0  0  0  0
    3.1961    1.2322    1.2847 H   0  0  0  0  0  0  0  0  0  0  0  0
   -4.2837    0.9337    2.0022 Br  0  0  0  0  0  0  0  0  0  0  0  0
  2  1  1  0  0  0  0
  3  4  1  0  0  0  0
  3  2  2  0  0  0  0
  4  5  1  0  0  0  0
  5  1  2  0  0  0  0
  5 14  1  0  0  0  0
  6  2  1  0  0  0  0
  6 10  2  0  0  0  0
  7  8  1  0  0  0  0
  7  6  1  0  0  0  0
  8  9  2  0  0  0  0
  9 10  1  0  0  0  0
  9 13  1  0  0  0  0
 11  8  1  0  0  0  0
 12  3  1  0  0  0  0
M  END
