47

C         -5.04550        3.10490       -1.07330
C         -4.76440        1.84990       -0.59420
C         -5.76090        1.00620       -0.21720
C         -7.08400        1.46870       -0.33030
C         -7.36020        2.72510       -0.80950
C         -6.33840        3.54650       -1.18330
C         -5.80270       -0.25600        0.31300
C         -7.15970       -0.52570        0.52010
N         -7.90110        0.52600        0.12270
C         -7.55900       -1.70500        1.08820
C         -6.60630       -2.61400        1.44700
C         -5.27540       -2.36110        1.24260
C         -4.86210       -1.14020        0.65100
H         -4.55520       -3.09510        1.53510
H         -8.92700        0.58620        0.16410
H         -6.92080       -3.55910        1.90540
H         -3.74730        1.61980       -0.48690
H         -8.37860        3.05390       -0.88750
H         -6.57930        4.53870       -1.56280
H         -4.26860        3.80500       -1.38640
S          1.92480       -1.40250       -0.34540
C          2.90960       -0.77970       -1.60700
N          1.99430       -0.21220       -2.38440
N          0.77620       -0.25500       -2.06130
C          0.41580       -0.87090       -0.93950
C         -0.94190       -1.03430       -0.38270
N         -1.29950       -1.64760        0.73410
N         -2.48750       -1.70860        1.08190
C         -3.46150       -1.12210        0.28480
S         -2.46200       -0.52660       -0.93400
S         11.81900        1.07150        1.34110
C         10.42230        0.03480        0.86790
C          9.77480       -0.47680        1.84270
S         10.44950       -0.01020        3.47350
C         11.36310        1.52110        3.03620
S          8.38230       -1.51950        1.37880
C          8.12970       -1.02150       -0.30780
S          9.74730       -0.42270       -0.76390
C          7.05380       -1.06550       -1.05710
S          6.76530       -0.57620       -2.74730
C          5.00710       -0.34530       -2.77710
C          4.37230       -0.86110       -1.76920
S          5.41450       -1.67720       -0.58060
H         12.24220        1.65070        3.68690
H         10.67190        2.37840        3.03830
H         -8.62800       -1.90560        1.24770
H          4.54100        0.21000       -3.62490
