
     RDKit          3D

  0  0  0  0  0  0  0  0  0  0999 V3000
M  V30 BEGIN CTAB
M  V30 COUNTS 47 54 0 0 0
M  V30 BEGIN ATOM
M  V30 1 C -5.0455 3.1049 -1.0733 0
M  V30 2 C -4.7644 1.8499 -0.5942 0
M  V30 3 C -5.7609 1.0062 -0.2172 0
M  V30 4 C -7.0840 1.4687 -0.3303 0
M  V30 5 C -7.3602 2.7251 -0.8095 0
M  V30 6 C -6.3384 3.5465 -1.1833 0
M  V30 7 C -5.8027 -0.2560 0.3130 0
M  V30 8 C -7.1597 -0.5257 0.5201 0
M  V30 9 N -7.9011 0.5260 0.1227 0
M  V30 10 C -7.5590 -1.7050 1.0882 0
M  V30 11 C -6.6063 -2.6140 1.4470 0
M  V30 12 C -5.2754 -2.3611 1.2426 0
M  V30 13 C -4.8621 -1.1402 0.6510 0
M  V30 14 H -4.5552 -3.0951 1.5351 0
M  V30 15 H -8.9270 0.5862 0.1641 0
M  V30 16 H -6.9208 -3.5591 1.9054 0
M  V30 17 H -3.7473 1.6198 -0.4869 0
M  V30 18 H -8.3786 3.0539 -0.8875 0
M  V30 19 H -6.5793 4.5387 -1.5628 0
M  V30 20 H -4.2686 3.8050 -1.3864 0
M  V30 21 S 1.9248 -1.4025 -0.3454 0
M  V30 22 C 2.9096 -0.7797 -1.6070 0
M  V30 23 N 1.9943 -0.2122 -2.3844 0
M  V30 24 N 0.7762 -0.2550 -2.0613 0
M  V30 25 C 0.4158 -0.8709 -0.9395 0
M  V30 26 C -0.9419 -1.0343 -0.3827 0
M  V30 27 N -1.2995 -1.6476 0.7341 0
M  V30 28 N -2.4875 -1.7086 1.0819 0
M  V30 29 C -3.4615 -1.1221 0.2848 0
M  V30 30 S -2.4620 -0.5266 -0.9340 0
M  V30 31 S 11.8190 1.0715 1.3411 0
M  V30 32 C 10.4223 0.0348 0.8679 0
M  V30 33 C 9.7748 -0.4768 1.8427 0
M  V30 34 S 10.4495 -0.0102 3.4735 0
M  V30 35 C 11.3631 1.5211 3.0362 0
M  V30 36 S 8.3823 -1.5195 1.3788 0
M  V30 37 C 8.1297 -1.0215 -0.3078 0
M  V30 38 S 9.7473 -0.4227 -0.7639 0
M  V30 39 C 7.0538 -1.0655 -1.0571 0
M  V30 40 S 6.7653 -0.5762 -2.7473 0
M  V30 41 C 5.0071 -0.3453 -2.7771 0
M  V30 42 C 4.3723 -0.8611 -1.7692 0
M  V30 43 S 5.4145 -1.6772 -0.5806 0
M  V30 44 H 12.2422 1.6507 3.6869 0
M  V30 45 H 10.6719 2.3784 3.0383 0
M  V30 46 H -8.6280 -1.9056 1.2477 0
M  V30 47 H 4.5410 0.2100 -3.6249 0
M  V30 END ATOM
M  V30 BEGIN BOND
M  V30 0 1 1 20
M  V30 1 1 2 17
M  V30 2 2 2 1
M  V30 3 1 3 2
M  V30 4 2 4 3
M  V30 5 1 4 5
M  V30 6 2 5 6
M  V30 7 1 6 1
M  V30 8 1 6 19
M  V30 9 1 7 3
M  V30 10 1 8 9
M  V30 11 2 8 7
M  V30 12 1 9 4
M  V30 13 1 10 8
M  V30 14 2 11 10
M  V30 15 1 11 12
M  V30 16 2 12 13
M  V30 17 1 13 7
M  V30 18 1 14 12
M  V30 19 1 15 9
M  V30 20 1 16 11
M  V30 21 1 18 5
M  V30 22 1 21 22
M  V30 23 1 21 25
M  V30 24 2 22 23
M  V30 25 1 23 24
M  V30 26 2 25 24
M  V30 27 1 26 25
M  V30 28 1 26 30
M  V30 29 1 27 28
M  V30 30 2 27 26
M  V30 31 2 28 29
M  V30 32 1 29 30
M  V30 33 1 31 35
M  V30 34 2 32 33
M  V30 35 1 32 31
M  V30 36 1 33 34
M  V30 37 1 34 35
M  V30 38 1 35 45
M  V30 39 1 35 44
M  V30 40 1 36 33
M  V30 41 1 37 38
M  V30 42 1 37 36
M  V30 43 1 38 32
M  V30 44 2 39 37
M  V30 45 1 40 39
M  V30 46 2 41 42
M  V30 47 1 41 40
M  V30 48 1 42 43
M  V30 49 1 43 39
M  V30 50 1 13 29
M  V30 51 1 22 42
M  V30 52 1 10 46
M  V30 53 1 41 47
M  V30 END BOND
M  V30 END CTAB
M  END

$$$$
