   65
Geometry Step: 2172
    C      7.27176567     -2.13310939     -3.17830295      4.11306543
    C      6.78076811     -1.29359194     -2.18175712      4.08167226
    C      7.68687509     -0.53469153     -1.41635827      4.03392358
    C      9.07838742     -0.67598445     -1.68034812      3.86585295
    C      9.57532936     -1.51689715     -2.68785716      4.16330759
    C      8.64985970     -2.24059585     -3.43509811      4.06711176
    C      7.56975220      0.40093869     -0.30811233      4.04850103
    C      8.90409128      0.75277473      0.05311749      3.86538407
    N      9.78964040      0.11259588     -0.79296183      5.17431668
    C      9.20790728      1.60437526      1.12574949      4.16127068
    C      8.14100459      2.10752454      1.86659669      4.07056886
    C      6.81879645      1.78659146      1.53248108      4.13637821
    C      6.49848326      0.95480332      0.44310892      3.99242429
    H      6.00908174      2.21482602      2.11716346      0.91753252
    H     10.79879839      0.18190335     -0.74568023      0.78385642
    H      8.33199003      2.76436398      2.71031710      0.91691147
    H      5.71171039     -1.23858396     -2.00460755      0.90529041
    H     10.64281025     -1.60347085     -2.87177662      0.91751744
    H      8.99702868     -2.90308399     -4.22341469      0.92090130
    H      6.57575244     -2.71927957     -3.77179963      0.91826328
    C     -0.59039071      0.41826514      1.23900831      3.83772712
    N     -0.68338852      0.17423218     -0.07875377      5.15996006
    O      0.58223014      0.20343458     -0.57255618      6.05271489
    C      1.45930484      0.45967654      0.41112611      3.77289057
    C      0.77776929      0.60811752      1.60258872      4.28196131
    C      2.87673016      0.53123564      0.08419020      3.88361648
    N      3.33155190      0.35211219     -1.16473530      5.16175897
    O      4.68293294      0.48203293     -1.10610379      6.05678148
    C      5.07830795      0.73366541      0.15054995      3.75625944
    C      3.96360123      0.78940967      0.96813254      4.27731478
    H      3.92832145      0.96277940      2.03375905      0.88588095
    H      1.18882661      0.82091828      2.57934435      0.88862362
    C     -6.60504413      0.67086621     -1.43316782      4.09544036
    C     -7.04455164      0.63760112     -2.75504032      4.07617932
    C     -6.31808269     -0.06211645     -3.72089500      4.07920975
    C     -5.13664110     -0.71379342     -3.36197690      4.07743394
    C     -4.69007820     -0.67696836     -2.04255515      4.08364845
    C     -5.42762906     -0.00003042     -1.05603718      3.97909265
    C     -4.91200239      0.04172591      0.34112907      3.85425992
    C     -5.80572310      0.00216938      1.50437517      3.84301674
    N     -5.36246455      0.22245441      2.73900202      5.30184462
    C     -4.00265974      0.41097801      2.88563369      3.85541162
    C     -3.10957450      0.31532070      1.75394134      3.87645231
    N     -3.59264815      0.15617523      0.47663997      5.27772255
    C     -3.33837125      0.64364193      4.08729445      4.17915961
    S     -1.62312572      0.73298653      3.82543070      5.94559111
    C     -1.75721613      0.46390997      2.10284243      4.03171216
    C     -7.25239986     -0.33417807      1.37302386      3.97907093
    C     -7.69690041     -1.34615575      0.50332011      4.09336277
    C     -9.05139326     -1.66252282      0.42142117      4.07525399
    C     -9.98277159     -0.97638600      1.20381504      4.07915380
    C     -9.55050714      0.01745992      2.08375137      4.07826241
    C     -8.19544871      0.33087533      2.17438308      4.08616760
    H     -7.85516731      1.10166746      2.86121434      0.91273938
    H    -10.27132652      0.54686314      2.70206070      0.92220306
    H    -11.03949445     -1.22124119      1.13363436      0.92236167
    H     -9.38159650     -2.44822202     -0.25332908      0.92120052
    H     -6.97762677     -1.89666583     -0.09795200      0.91703970
    H     -3.76727692     -1.17713629     -1.76052423      0.90805839
    H     -4.56124750     -1.24855398     -4.11363417      0.92145377
    H     -6.66622510     -0.09030435     -4.75028423      0.92278511
    H     -7.95498330      1.16235559     -3.03346557      0.92205288
    H     -7.16745861      1.23556826     -0.69372422      0.91820951
    H     10.23605343      1.85261464      1.37337667      0.91429709
    H     -3.77434715      0.75175321      5.07208653      0.88061243
