
 OpenBabel03271909353D

 14 15  0  0  0  0  0  0  0  0999 V2000
    0.2307   -0.4475    4.8348 S   0  0  0  0  0  0  0  0  0  0  0  0
    1.4717    0.0408    3.6773 C   0  0  0  0  0  0  0  0  0  0  0  0
    3.1067    0.1223    4.3421 S   0  0  0  0  0  0  0  0  0  0  0  0
    2.6232   -0.3417    5.9324 C   0  0  0  0  0  0  0  0  0  0  0  0
    1.3324   -0.5965    6.1564 C   0  0  0  0  0  0  0  0  0  0  0  0
    1.1915    0.3326    2.3797 C   0  0  0  0  0  0  0  0  0  0  0  0
    2.4311    0.8302    1.2247 S   0  0  0  0  0  0  0  0  0  0  0  0
    1.3234    1.0172   -0.0872 C   0  0  0  0  0  0  0  0  0  0  0  0
    0.0341    0.7533    0.1345 C   0  0  0  0  0  0  0  0  0  0  0  0
   -0.4428    0.2470    1.7139 S   0  0  0  0  0  0  0  0  0  0  0  0
    3.3730   -0.4148    6.7115 H   0  0  0  0  0  0  0  0  0  0  0  0
    0.6637   -1.1007    7.8145 Br  0  0  0  0  0  0  0  0  0  0  0  0
    1.9838    1.5750   -1.7314 Br  0  0  0  0  0  0  0  0  0  0  0  0
   -0.7189    0.8469   -0.6392 H   0  0  0  0  0  0  0  0  0  0  0  0
  1  5  1  0  0  0  0
  2  3  1  0  0  0  0
  2  1  1  0  0  0  0
  3  4  1  0  0  0  0
  4  5  2  0  0  0  0
  4 11  1  0  0  0  0
  5 12  1  0  0  0  0
  6  2  2  0  0  0  0
  7  6  1  0  0  0  0
  8  9  2  0  0  0  0
  8  7  1  0  0  0  0
  9 10  1  0  0  0  0
 10  6  1  0  0  0  0
 13  8  1  0  0  0  0
 14  9  1  0  0  0  0
M  END
