   43
Geometry Step: 927
    C     -4.77210660     -2.81874206      0.45235623      4.11564549
    C     -4.04017616     -1.65249484      0.24485601      4.08039793
    C     -4.72350234     -0.42796758      0.11843046      4.03005152
    C     -6.14320123     -0.43198750      0.21934491      3.86733889
    C     -6.88367368     -1.60678133      0.42137916      4.16527843
    C     -6.17561269     -2.80039170      0.53523356      4.06767810
    C     -4.32551880      0.95839138     -0.07132952      4.04254442
    C     -5.53233998      1.71926695     -0.05512383      3.86853049
    N     -6.60838659      0.86605444      0.10230519      5.17500050
    C     -5.55952880      3.11746930     -0.16237059      4.16065639
    C     -4.33600005      3.77472694     -0.27326072      4.07262360
    C     -3.13406210      3.05653786     -0.29014158      4.13601306
    C     -3.09082307      1.65104960     -0.20996233      3.97641395
    H     -2.19961637      3.60333283     -0.39409509      0.91521927
    H     -7.57829754      1.15140219      0.15894072      0.78444832
    H     -4.30988753      4.85778483     -0.35122830      0.91687650
    H     -2.95693936     -1.69392286      0.17872310      0.89638195
    H     -7.96788948     -1.58301335      0.49121554      0.91841954
    H     -6.71459988     -3.73091441      0.69262206      0.92220781
    H     -4.24936842     -3.76636798      0.54946924      0.91984359
    S      2.81007728     -1.33563087     -0.70102366      6.04812503
    C      1.98429045      0.15831798     -0.21558310      3.83567917
    N      2.81126511      1.09508868      0.23383848      5.17346405
    N      4.12007090      0.71879443      0.22977550      5.16973160
    C      4.31547936     -0.51698137     -0.22436877      3.80395793
    C      0.55280493      0.32010800     -0.30658808      3.83369122
    N     -0.26766328     -0.61883781     -0.76159236      5.18401666
    N     -1.58069212     -0.23890170     -0.75423498      5.18374337
    C     -1.78695077      0.98524593     -0.29176687      3.80825991
    S     -0.27653065      1.80461819      0.17940254      6.03946749
    C      5.60314617     -1.15290176     -0.33048202      4.04329250
    S      5.76887257     -2.78272445     -0.93986277      5.92292943
    C      7.49298509     -2.79579580     -0.75924902      4.16530990
    C      7.94161511     -1.58020711     -0.24316256      3.85544035
    C      6.87216785     -0.63908801      0.00385750      3.86760309
    N      9.25974657     -1.25870756      0.02248667      5.26639524
    C      9.45722331     -0.04562138      0.51055975      3.92270449
    C      8.39153706      0.88904561      0.75550676      3.93092412
    N      7.11910927      0.61515096      0.51312241      5.24238581
    H     10.49052384      0.24803106      0.73481275      0.94115016
    H      8.62815100      1.87982374      1.16225820      0.93851648
    H     -6.49758242      3.66518083     -0.14835890      0.91484822
    H      8.09188402     -3.65724030     -1.02631170      0.87679400
