43

C         -5.12270       -2.69860        0.50410
C         -4.33250       -1.55640        0.33270
C         -4.96050       -0.35710        0.16670
C         -6.35290       -0.26170        0.17040
C         -7.10980       -1.40950        0.34250
C         -6.49480       -2.61590        0.50710
C         -4.48170        0.91000        0.00500
C         -5.61740        1.73640       -0.07640
N         -6.72940        1.01980        0.02250
C         -5.48400        3.10040       -0.20870
C         -4.23630        3.66410       -0.26350
C         -3.16140        2.84140       -0.18700
C         -3.23240        1.43800       -0.05340
H         -2.18170        3.29520       -0.23180
H         -7.71490        1.39500       -0.01020
H         -4.13850        4.75810       -0.36690
H         -3.29540       -1.75050        0.38900
H         -8.18230       -1.29330        0.33820
H         -7.12220       -3.48140        0.63640
H         -4.68320       -3.67680        0.63870
S          3.00240       -1.39080       -0.67390
C          2.04500       -0.06270       -0.18600
N          2.98170        0.78130        0.23730
N          4.19860        0.45130        0.18770
C          4.53600       -0.73900       -0.28770
C          0.59870        0.13900       -0.20710
N         -0.30510       -0.73370       -0.64000
N         -1.52010       -0.42450       -0.59890
C         -1.96490        0.70840       -0.15530
S         -0.40340        1.42470        0.25970
C          5.87670       -1.33700       -0.44080
S          6.33060       -2.85610       -1.04590
C          8.01810       -2.73160       -0.87000
C          8.17920       -1.47790       -0.33140
C          7.07360       -0.75250       -0.10760
N          9.39990       -0.92440       -0.00950
C          9.53470        0.29190        0.51150
C          8.40720        1.04170        0.74400
N          7.22000        0.50910        0.43330
H         10.50560        0.67680        0.74430
H          8.47750        2.05640        1.17550
H         -6.36170        3.75970       -0.27270
H          8.80370       -3.46710       -1.12150
