
 OpenBabel08201816153D

 13 14  0  0  0  0  0  0  0  0999 V2000
    2.6989    1.1239    3.7394 C   0  0  0  0  0  0  0  0  0  0  0  0
    2.7668    0.4250    2.1864 S   0  0  0  0  0  0  0  0  0  0  0  0
    1.1024    0.6893    1.9315 C   0  0  0  0  0  0  0  0  0  0  0  0
    0.4947    1.2976    3.0013 C   0  0  0  0  0  0  0  0  0  0  0  0
    1.4382    1.5544    4.0698 C   0  0  0  0  0  0  0  0  0  0  0  0
   -0.8296    1.6242    3.0629 N   0  0  0  0  0  0  0  0  0  0  0  0
   -1.1323    2.2153    4.2505 C   0  0  0  0  0  0  0  0  0  0  0  0
   -0.2207    2.4635    5.2829 C   0  0  0  0  0  0  0  0  0  0  0  0
    1.1031    2.1504    5.2517 N   0  0  0  0  0  0  0  0  0  0  0  0
    4.2097    1.2675    4.8420 Br  0  0  0  0  0  0  0  0  0  0  0  0
    0.2382    0.1862    0.3444 Br  0  0  0  0  0  0  0  0  0  0  0  0
   -2.1747    2.5011    4.3642 H   0  0  0  0  0  0  0  0  0  0  0  0
   -0.5537    2.9425    6.1999 H   0  0  0  0  0  0  0  0  0  0  0  0
  1  5  2  0  0  0  0
  1 10  1  0  0  0  0
  2  1  1  0  0  0  0
  3  2  1  0  0  0  0
  3  4  2  0  0  0  0
  4  6  1  0  0  0  0
  4  5  1  0  0  0  0
  5  9  1  0  0  0  0
  6  7  2  0  0  0  0
  7 12  1  0  0  0  0
  7  8  1  0  0  0  0
  8 13  1  0  0  0  0
  9  8  2  0  0  0  0
 11  3  1  0  0  0  0
M  END
