
     RDKit          3D

  0  0  0  0  0  0  0  0  0  0999 V3000
M  V30 BEGIN CTAB
M  V30 COUNTS 44 50 0 0 0
M  V30 BEGIN ATOM
M  V30 1 C -5.0008 2.3498 -0.7259 0
M  V30 2 C -4.0467 1.3573 -0.4612 0
M  V30 3 C -4.4198 0.0618 -0.3516 0
M  V30 4 C -5.7609 -0.2500 -0.5129 0
M  V30 5 C -6.7033 0.7109 -0.7721 0
M  V30 6 C -6.3237 2.0281 -0.8802 0
M  V30 7 C -3.7185 -1.1068 -0.1371 0
M  V30 8 C -4.6694 -2.1210 -0.1844 0
M  V30 9 N -5.8784 -1.5839 -0.4070 0
M  V30 10 C -4.2997 -3.4302 -0.0587 0
M  V30 11 C -2.9679 -3.7220 0.1166 0
M  V30 12 C -2.0434 -2.7135 0.1665 0
M  V30 13 C -2.4071 -1.3506 0.0419 0
M  V30 14 H -1.0108 -2.9669 0.3039 0
M  V30 15 H -6.7894 -2.1033 -0.4897 0
M  V30 16 H -2.6864 -4.7518 0.2111 0
M  V30 17 H -3.0357 1.7119 -0.4029 0
M  V30 18 H -7.7527 0.4037 -0.8885 0
M  V30 19 H -7.0529 2.7995 -1.0827 0
M  V30 20 H -4.7100 3.3883 -0.8132 0
M  V30 21 N 3.3548 0.5524 0.0114 0
M  V30 22 C 2.4408 1.1470 0.7087 0
M  V30 23 C 2.8268 2.2171 1.4805 0
M  V30 24 S 4.4982 2.2954 1.1460 0
M  V30 25 C 4.6027 0.9806 0.0601 0
M  V30 26 C 1.0161 0.6927 0.6810 0
M  V30 27 S 0.3248 -0.5930 -0.1921 0
M  V30 28 C -1.3373 -0.4152 0.3449 0
M  V30 29 C -1.1860 0.6497 1.1701 0
M  V30 30 N -0.0128 1.1789 1.3181 0
M  V30 31 H 2.1853 2.8377 2.1339 0
M  V30 32 H -2.0613 1.0553 1.7413 0
M  V30 33 N 9.1397 1.2373 -0.8119 0
M  V30 34 C 8.0814 0.4906 -1.1627 0
M  V30 35 C 7.0021 1.0179 -0.4805 0
M  V30 36 N 7.4742 2.0348 0.2278 0
M  V30 37 O 8.7495 2.1551 0.0216 0
M  V30 38 C 5.7882 0.4467 -0.6527 0
M  V30 39 C 5.5946 -0.6298 -1.4754 0
M  V30 40 N 6.6524 -1.1606 -2.1554 0
M  V30 41 C 7.8548 -0.5886 -1.9798 0
M  V30 42 H 4.6064 -1.0584 -1.5862 0
M  V30 43 H -5.0132 -4.2440 -0.0918 0
M  V30 44 H 8.6953 -1.0108 -2.5204 0
M  V30 END ATOM
M  V30 BEGIN BOND
M  V30 0 1 1 20
M  V30 1 1 2 17
M  V30 2 2 2 1
M  V30 3 1 3 2
M  V30 4 2 4 3
M  V30 5 1 4 5
M  V30 6 2 5 6
M  V30 7 1 6 1
M  V30 8 1 6 19
M  V30 9 1 7 3
M  V30 10 1 8 9
M  V30 11 2 8 7
M  V30 12 1 9 4
M  V30 13 1 10 8
M  V30 14 2 11 10
M  V30 15 1 11 12
M  V30 16 2 12 13
M  V30 17 1 13 7
M  V30 18 1 14 12
M  V30 19 1 15 9
M  V30 20 1 16 11
M  V30 21 1 18 5
M  V30 22 1 22 21
M  V30 23 1 23 24
M  V30 24 2 23 22
M  V30 25 1 24 25
M  V30 26 2 25 21
M  V30 27 1 26 22
M  V30 28 2 26 30
M  V30 29 1 27 28
M  V30 30 1 27 26
M  V30 31 2 28 29
M  V30 32 1 29 30
M  V30 33 1 29 32
M  V30 34 1 31 23
M  V30 35 2 34 33
M  V30 36 2 35 36
M  V30 37 1 35 34
M  V30 38 1 36 37
M  V30 39 1 37 33
M  V30 40 1 38 35
M  V30 41 2 39 38
M  V30 42 1 39 40
M  V30 43 2 40 41
M  V30 44 1 41 34
M  V30 45 1 42 39
M  V30 46 1 13 28
M  V30 47 1 25 38
M  V30 48 1 10 43
M  V30 49 1 41 44
M  V30 END BOND
M  V30 END CTAB
M  END

$$$$
