   47
Geometry Step: 1106
    C      5.46539489     -2.76760947     -0.86070011      4.11588911
    C      4.88355076     -1.57837936     -0.42907954      4.08042467
    C      5.71465163     -0.51070665     -0.03979809      4.02980866
    C      7.12473497     -0.68920360     -0.11404844      3.86752603
    C      7.71367488     -1.88890742     -0.54190812      4.16568456
    C      6.86150648     -2.92582012     -0.91315170      4.06811128
    C      5.49306026      0.84968436      0.42596222      4.04300280
    C      6.78842382      1.42472272      0.58949960      3.86849820
    N      7.74981477      0.48161881      0.27780450      5.17535112
    C      6.99339791      2.75475738      0.98484631      4.16182389
    C      5.86242000      3.53740398      1.20771905      4.07278825
    C      4.57738385      3.00277719      1.05376371      4.13674022
    C      4.35436356      1.66251267      0.68295620      3.97549612
    H      3.71869851      3.64024703      1.25189055      0.91529193
    H      8.75025952      0.63648035      0.29901383      0.78470659
    H      5.97456534      4.57520860      1.50812334      0.91734344
    H      3.80232412     -1.48310287     -0.39182298      0.89593657
    H      8.79375569     -2.00068899     -0.58599709      0.91872158
    H      7.28083322     -3.87012471     -1.25027757      0.92250262
    H      4.82819151     -3.59489962     -1.16114179      0.91995683
    S     -1.90532811     -0.51965707      0.43272874      6.04176660
    C     -0.86798908      0.91303983      0.28383688      3.83991010
    N     -1.54203690      2.02629826      0.02324059      5.17281149
    N     -2.88975432      1.84013797     -0.07569827      5.19810596
    C     -3.26417145      0.57522324      0.10875462      3.80414089
    C      0.56683274      0.85360524      0.43355337      3.83145944
    N      1.23529414     -0.26166133      0.69873256      5.18671440
    N      2.58638674     -0.07226951      0.79493537      5.18409750
    C      2.97212649      1.17955837      0.60070955      3.80964155
    S      1.60502012      2.27791878      0.28195785      6.04336677
    S     -5.03436126     -1.58391458      0.31338930      5.98040227
    C     -6.72700604     -1.23828408      0.08773104      3.97020335
    C     -6.95125168      0.11367915     -0.17049191      4.03852516
    C     -5.76744730      0.88772219     -0.19023295      4.12925703
    C     -4.63008981      0.12136093      0.05475842      4.00089300
    C     -7.99140940     -1.92846451      0.08494358      3.98122133
    C     -9.00390539     -1.01149122     -0.17418546      4.03109525
    C     -8.42771456      0.37141384     -0.35966460      4.10131582
    C    -10.29891071     -1.60157159     -0.19744954      4.12544890
    C    -10.25521461     -2.95700047      0.04375056      4.11114882
    S     -8.61883873     -3.53988799      0.30538042      5.96092080
    H    -11.22053916     -1.06067072     -0.38195662      0.90206181
    H     -5.72119765      1.95557575     -0.37237336      0.89008631
    H     -8.82109328      1.08887756      0.37165503      0.90963087
    H     -8.65308451      0.78802732     -1.34960057      0.90964907
    H      7.99467539      3.15972126      1.10146781      0.91518263
    H    -11.09999737     -3.63305693      0.07947369      0.89533838
