47

C         -3.10360        2.79530       -0.54160
C         -2.88840        1.42390       -0.40930
C         -3.90820        0.56840       -0.15050
C         -5.19610        1.09830       -0.02190
C         -5.40840        2.46310       -0.15410
C         -4.37160        3.29740       -0.41030
C         -4.01450       -0.80670        0.00980
C         -5.35800       -1.06200        0.22170
N         -6.03570        0.07730        0.20030
C         -5.79580       -2.35300        0.38620
C         -4.89100       -3.39660        0.34090
C         -3.56510       -3.11180        0.13330
C         -3.08310       -1.80300       -0.03670
H         -2.88020       -3.97110        0.10750
H         -7.07280        0.19420        0.33400
H         -5.25920       -4.41340        0.47150
H         -1.89770        1.12530       -0.56410
H         -6.42230        2.81190       -0.04360
H         -4.51010        4.36160       -0.51640
H         -2.25340        3.46230       -0.75010
O          2.82880       -0.46620        0.09260
C          1.57150       -0.18080        0.29050
C          1.53770        1.10230        0.79790
C          2.84190        1.53410        0.87920
C          3.63960        0.52030        0.42580
C          0.40710       -1.04190        0.03080
C          0.44890       -2.31220       -0.47210
C         -0.84230       -2.72070       -0.54510
C         -1.64780       -1.65970       -0.07270
O         -0.82110       -0.73200        0.23630
H         -1.14750       -3.68650       -0.90610
H          1.32170       -2.91430       -0.76860
H          3.13140        2.50080        1.24010
H          0.62860        1.63150        1.06820
N          7.74120        2.63620        0.97940
C          7.27960        1.43840        0.53930
C          5.89010        1.52680        0.66870
N          5.62920        2.74340        1.16540
O          6.75040        3.37000        1.33570
C          5.11800        0.47430        0.30700
C          5.73400       -0.65690       -0.18020
C          7.09550       -0.75780       -0.31270
C          7.91100        0.31390        0.05370
H          7.59710       -1.63440       -0.69190
H          5.12140       -1.48910       -0.46610
H         -6.83510       -2.58570        0.55190
H          8.98410        0.28480       -0.03090
