
     RDKit          3D

  0  0  0  0  0  0  0  0  0  0999 V3000
M  V30 BEGIN CTAB
M  V30 COUNTS 47 53 0 0 0
M  V30 BEGIN ATOM
M  V30 1 C -3.1036 2.7953 -0.5416 0
M  V30 2 C -2.8884 1.4239 -0.4093 0
M  V30 3 C -3.9082 0.5684 -0.1505 0
M  V30 4 C -5.1961 1.0983 -0.0219 0
M  V30 5 C -5.4084 2.4631 -0.1541 0
M  V30 6 C -4.3716 3.2974 -0.4103 0
M  V30 7 C -4.0145 -0.8067 0.0098 0
M  V30 8 C -5.3580 -1.0620 0.2217 0
M  V30 9 N -6.0357 0.0773 0.2003 0
M  V30 10 C -5.7958 -2.3530 0.3862 0
M  V30 11 C -4.8910 -3.3966 0.3409 0
M  V30 12 C -3.5651 -3.1118 0.1333 0
M  V30 13 C -3.0831 -1.8030 -0.0367 0
M  V30 14 H -2.8802 -3.9711 0.1075 0
M  V30 15 H -7.0728 0.1942 0.3340 0
M  V30 16 H -5.2592 -4.4134 0.4715 0
M  V30 17 H -1.8977 1.1253 -0.5641 0
M  V30 18 H -6.4223 2.8119 -0.0436 0
M  V30 19 H -4.5101 4.3616 -0.5164 0
M  V30 20 H -2.2534 3.4623 -0.7501 0
M  V30 21 O 2.8288 -0.4662 0.0926 0
M  V30 22 C 1.5715 -0.1808 0.2905 0
M  V30 23 C 1.5377 1.1023 0.7979 0
M  V30 24 C 2.8419 1.5341 0.8792 0
M  V30 25 C 3.6396 0.5203 0.4258 0
M  V30 26 C 0.4071 -1.0419 0.0308 0
M  V30 27 C 0.4489 -2.3122 -0.4721 0
M  V30 28 C -0.8423 -2.7207 -0.5451 0
M  V30 29 C -1.6478 -1.6597 -0.0727 0
M  V30 30 O -0.8211 -0.7320 0.2363 0
M  V30 31 H -1.1475 -3.6865 -0.9061 0
M  V30 32 H 1.3217 -2.9143 -0.7686 0
M  V30 33 H 3.1314 2.5008 1.2401 0
M  V30 34 H 0.6286 1.6315 1.0682 0
M  V30 35 N 7.7412 2.6362 0.9794 0
M  V30 36 C 7.2796 1.4384 0.5393 0
M  V30 37 C 5.8901 1.5268 0.6687 0
M  V30 38 N 5.6292 2.7434 1.1654 0
M  V30 39 O 6.7504 3.3700 1.3357 0
M  V30 40 C 5.1180 0.4743 0.3070 0
M  V30 41 C 5.7340 -0.6569 -0.1802 0
M  V30 42 C 7.0955 -0.7578 -0.3127 0
M  V30 43 C 7.9110 0.3139 0.0537 0
M  V30 44 H 7.5971 -1.6344 -0.6919 0
M  V30 45 H 5.1214 -1.4891 -0.4661 0
M  V30 46 H -6.8351 -2.5857 0.5519 0
M  V30 47 H 8.9841 0.2848 -0.0309 0
M  V30 END ATOM
M  V30 BEGIN BOND
M  V30 0 1 1 20
M  V30 1 1 2 17
M  V30 2 2 2 1
M  V30 3 1 3 2
M  V30 4 2 4 3
M  V30 5 1 4 5
M  V30 6 2 5 6
M  V30 7 1 6 1
M  V30 8 1 6 19
M  V30 9 1 7 3
M  V30 10 1 8 9
M  V30 11 2 8 7
M  V30 12 1 9 4
M  V30 13 1 10 8
M  V30 14 2 11 10
M  V30 15 1 11 12
M  V30 16 2 12 13
M  V30 17 1 13 7
M  V30 18 1 14 12
M  V30 19 1 15 9
M  V30 20 1 16 11
M  V30 21 1 18 5
M  V30 22 1 21 22
M  V30 23 1 21 25
M  V30 24 2 22 23
M  V30 25 1 23 34
M  V30 26 1 23 24
M  V30 27 1 24 33
M  V30 28 2 25 24
M  V30 29 1 26 22
M  V30 30 2 27 26
M  V30 31 1 27 32
M  V30 32 1 28 27
M  V30 33 2 29 28
M  V30 34 1 29 30
M  V30 35 1 30 26
M  V30 36 1 31 28
M  V30 37 2 36 35
M  V30 38 2 37 38
M  V30 39 1 37 36
M  V30 40 1 38 39
M  V30 41 1 39 35
M  V30 42 1 40 37
M  V30 43 2 41 40
M  V30 44 1 41 42
M  V30 45 2 42 43
M  V30 46 1 43 36
M  V30 47 1 44 42
M  V30 48 1 45 41
M  V30 49 1 13 29
M  V30 50 1 25 40
M  V30 51 1 10 46
M  V30 52 1 43 47
M  V30 END BOND
M  V30 END CTAB
M  END

$$$$
