42

C         -4.67060       -2.46480        1.22780
C         -3.92210       -1.41580        0.66560
C         -4.55560       -0.43830       -0.03570
C         -5.94550       -0.47820       -0.18990
C         -6.66090       -1.52540        0.37610
C         -6.03500       -2.52210        1.08480
C         -4.10940        0.70850       -0.67140
C         -5.27040        1.30720       -1.17170
N         -6.35280        0.58700       -0.87780
C         -5.20820        2.51790       -1.84730
C         -3.97520        3.10960       -2.01150
C         -2.85360        2.51350       -1.52360
C         -2.90930        1.27720       -0.83580
H         -1.89290        2.96040       -1.64430
H         -7.35110        0.81960       -1.14270
H         -3.93120        4.07110       -2.54560
H         -2.88900       -1.40930        0.85240
H         -7.73410       -1.53930        0.24510
H         -6.58880       -3.34660        1.53000
H         -4.12890       -3.22450        1.77710
S          3.45930       -1.07730        0.26250
C          4.91570       -0.20190        0.50230
N          4.46430        1.04560        0.44340
N          3.23690        1.26730        0.25100
C          2.39570        0.24830        0.10720
C          0.95350        0.28820       -0.12110
N          0.12950       -0.74390       -0.26230
N         -1.09090       -0.52700       -0.45360
C         -1.61940        0.65130       -0.52530
S         -0.13220        1.58180       -0.28020
N          9.37130        0.87320        1.21990
C          8.59680       -0.22160        1.08600
C          7.28730        0.21730        0.88270
N          7.36460        1.55590        0.90860
O          8.59780        1.91170        1.10780
C          6.28680       -0.68810        0.71490
C          6.55240       -2.02340        0.74340
N          7.82740       -2.42710        0.94150
C          8.83760       -1.58020        1.11030
H          5.79960       -2.76310        0.61650
H         -6.11410        2.98990       -2.23900
H          9.86450       -1.88440        1.27010
