
     RDKit          3D

  0  0  0  0  0  0  0  0  0  0999 V3000
M  V30 BEGIN CTAB
M  V30 COUNTS 42 48 0 0 0
M  V30 BEGIN ATOM
M  V30 1 C -4.6706 -2.4648 1.2278 0
M  V30 2 C -3.9221 -1.4158 0.6656 0
M  V30 3 C -4.5556 -0.4383 -0.0357 0
M  V30 4 C -5.9455 -0.4782 -0.1899 0
M  V30 5 C -6.6609 -1.5254 0.3761 0
M  V30 6 C -6.0350 -2.5221 1.0848 0
M  V30 7 C -4.1094 0.7085 -0.6714 0
M  V30 8 C -5.2704 1.3072 -1.1717 0
M  V30 9 N -6.3528 0.5870 -0.8778 0
M  V30 10 C -5.2082 2.5179 -1.8473 0
M  V30 11 C -3.9752 3.1096 -2.0115 0
M  V30 12 C -2.8536 2.5135 -1.5236 0
M  V30 13 C -2.9093 1.2772 -0.8358 0
M  V30 14 H -1.8929 2.9604 -1.6443 0
M  V30 15 H -7.3511 0.8196 -1.1427 0
M  V30 16 H -3.9312 4.0711 -2.5456 0
M  V30 17 H -2.8890 -1.4093 0.8524 0
M  V30 18 H -7.7341 -1.5393 0.2451 0
M  V30 19 H -6.5888 -3.3466 1.5300 0
M  V30 20 H -4.1289 -3.2245 1.7771 0
M  V30 21 S 3.4593 -1.0773 0.2625 0
M  V30 22 C 4.9157 -0.2019 0.5023 0
M  V30 23 N 4.4643 1.0456 0.4434 0
M  V30 24 N 3.2369 1.2673 0.2510 0
M  V30 25 C 2.3957 0.2483 0.1072 0
M  V30 26 C 0.9535 0.2882 -0.1211 0
M  V30 27 N 0.1295 -0.7439 -0.2623 0
M  V30 28 N -1.0909 -0.5270 -0.4536 0
M  V30 29 C -1.6194 0.6513 -0.5253 0
M  V30 30 S -0.1322 1.5818 -0.2802 0
M  V30 31 N 9.3713 0.8732 1.2199 0
M  V30 32 C 8.5968 -0.2216 1.0860 0
M  V30 33 C 7.2873 0.2173 0.8827 0
M  V30 34 N 7.3646 1.5559 0.9086 0
M  V30 35 O 8.5978 1.9117 1.1078 0
M  V30 36 C 6.2868 -0.6881 0.7149 0
M  V30 37 C 6.5524 -2.0234 0.7434 0
M  V30 38 N 7.8274 -2.4271 0.9415 0
M  V30 39 C 8.8376 -1.5802 1.1103 0
M  V30 40 H 5.7996 -2.7631 0.6165 0
M  V30 41 H -6.1141 2.9899 -2.2390 0
M  V30 42 H 9.8645 -1.8844 1.2701 0
M  V30 END ATOM
M  V30 BEGIN BOND
M  V30 0 1 1 20
M  V30 1 1 2 17
M  V30 2 2 2 1
M  V30 3 1 3 2
M  V30 4 2 4 3
M  V30 5 1 4 5
M  V30 6 2 5 6
M  V30 7 1 6 1
M  V30 8 1 6 19
M  V30 9 1 7 3
M  V30 10 1 8 9
M  V30 11 2 8 7
M  V30 12 1 9 4
M  V30 13 1 10 8
M  V30 14 2 11 10
M  V30 15 1 11 12
M  V30 16 2 12 13
M  V30 17 1 13 7
M  V30 18 1 14 12
M  V30 19 1 15 9
M  V30 20 1 16 11
M  V30 21 1 18 5
M  V30 22 1 21 22
M  V30 23 1 21 25
M  V30 24 2 22 23
M  V30 25 1 23 24
M  V30 26 2 25 24
M  V30 27 1 26 25
M  V30 28 1 26 30
M  V30 29 1 27 28
M  V30 30 2 27 26
M  V30 31 2 28 29
M  V30 32 1 29 30
M  V30 33 2 32 31
M  V30 34 2 33 34
M  V30 35 1 33 32
M  V30 36 1 34 35
M  V30 37 1 35 31
M  V30 38 1 36 33
M  V30 39 2 37 36
M  V30 40 1 37 38
M  V30 41 2 38 39
M  V30 42 1 39 32
M  V30 43 1 40 37
M  V30 44 1 13 29
M  V30 45 1 22 36
M  V30 46 1 10 41
M  V30 47 1 39 42
M  V30 END BOND
M  V30 END CTAB
M  END

$$$$
