45

C         -4.57640        0.17150       -2.60550
C         -4.09330        0.07490       -1.29410
C         -4.90350        0.14960       -0.19580
C         -6.26320        0.32270       -0.39560
C         -6.77360        0.42170       -1.69280
C         -5.92180        0.34460       -2.75670
C         -4.67760        0.05720        1.17100
C         -5.94820        0.17180        1.75130
N         -6.87450        0.33110        0.79910
C         -6.10770        0.08070        3.13260
C         -5.00760       -0.12040        3.91870
C         -3.79380       -0.22030        3.31550
C         -3.57250       -0.13320        1.92360
H         -2.93210       -0.37850        3.94730
H         -7.89680        0.44270        0.95340
H         -5.11730       -0.19650        4.99830
H         -3.07230       -0.11620       -1.20920
H         -7.81980        0.55510       -1.80020
H         -6.32800        0.42410       -3.75180
H         -3.87800        0.10570       -3.40100
S          3.14560       -0.46390        0.53510
C          1.62980        0.18860        0.11270
N          1.98880        0.92010       -0.93420
N          3.17950        0.95780       -1.31450
C          4.11700        0.24930       -0.65860
C          0.31190        0.01420        0.70540
N         -0.03100       -0.72160        1.75340
N         -1.19720       -0.77920        2.15270
C         -2.18130       -0.05500        1.48880
S         -1.21140        0.64780        0.30950
C          5.54050        0.18690       -0.97430
C          6.44010       -0.55310       -0.26700
C          7.80920       -0.55600       -0.64450
C          8.26290        0.16870       -1.70880
C          7.34270        0.91240       -2.41500
C          6.01370        0.91750       -2.05170
O          9.60630        0.17050       -2.08520
O          8.73030       -1.30370        0.06670
O          6.11340       -1.32220        0.81940
H          5.30330        1.49690       -2.60370
H         10.31070       -0.35480       -1.60150
H          8.38790       -1.83660        0.85180
H          5.30190       -1.52030        1.30170
H         -7.07600        0.16390        3.60760
H          7.71950        1.47950       -3.25400
