   49
Geometry Step: 1208
    C      5.47712665      1.62010480     -1.95502321      4.11561523
    C      4.49961971      1.09406537     -1.11338684      4.08641137
    C      4.85257629      0.07774871     -0.20654446      4.03218817
    C      6.19236471     -0.40268199     -0.21030482      3.86671455
    C      7.18075549      0.13170438     -1.05092520      4.16421091
    C      6.80339507      1.15465194     -1.91799366      4.07168657
    C      4.13030765     -0.71972340      0.77121489      4.06341369
    C      5.06491362     -1.66715322      1.27803204      3.86462651
    N      6.30089896     -1.44229267      0.69735508      5.17676440
    C      4.71152946     -2.66563092      2.19895402      4.17377944
    C      3.37814129     -2.71856060      2.60176657      4.07103495
    C      2.44029867     -1.79011894      2.12913000      4.14429641
    C      2.78945369     -0.76061110      1.23575628      3.94088640
    H      1.41529749     -1.84614506      2.48755535      0.91587513
    H      7.13672201     -1.98714101      0.87015294      0.78528297
    H      3.05935593     -3.48475539      3.30322925      0.92013474
    H      3.47863753      1.45874056     -1.17774994      0.91187645
    H      8.19961766     -0.24600325     -1.03287610      0.91867616
    H      7.54165953      1.59167044     -2.58506977      0.92231774
    H      5.21098289      2.40515970     -2.65742398      0.92017844
    N     -2.61431485      1.06585081     -0.04775055      5.31661241
    C     -1.60368354      2.00157893      0.03870165      3.85699255
    C     -1.99929295      3.31452265     -0.18789868      4.14004915
    S     -3.70167715      3.38109125     -0.52078973      5.97688360
    C     -3.79218929      1.60632088     -0.33555209      3.78506529
    C     -0.25575324      1.55697951      0.34781337      3.80277178
    S      0.08988011     -0.16084701      0.60822535      6.00743366
    C      1.78469153      0.24308317      0.86306277      4.00523249
    C      1.94244655      1.61422637      0.75571683      3.98217165
    N      0.80879457      2.33855605      0.46677211      5.32511766
    H     -1.36087979      4.18815860     -0.16531709      0.88103969
    H      2.88274112      2.13556059      0.92084855      0.91540484
    C     -5.29243782     -3.26548594     -0.09441443      3.91124149
    N     -6.41646476     -2.64028970     -0.37187670      5.26946339
    C     -6.36398374     -1.25698633     -0.51119025      3.84552947
    C     -5.10042271     -0.54583792     -0.35088516      3.86100531
    N     -3.95129036     -1.25895555     -0.06024814      5.23778673
    C     -4.04601997     -2.56669100      0.06254660      3.92162711
    C     -7.54734685     -0.58092136     -0.80590504      4.17552907
    C     -7.53099539      0.83461215     -0.95591490      3.82541480
    C     -6.26023698      1.56824354     -0.79644536      3.85171956
    C     -5.03302321      0.86403114     -0.48943394      4.05543197
    N     -6.30510037      2.88524916     -0.94728093      5.24515099
    S     -8.08733230      3.31717405     -1.32909693      5.81572906
    N     -8.62039025      1.54904494     -1.23796550      5.24802900
    H     -3.12937370     -3.12471037      0.29256586      0.93659981
    H     -5.32803242     -4.35700615      0.01650981      0.93872033
    H      5.44400374     -3.37704798      2.56950732      0.91590975
    H     -8.47617031     -1.13233279     -0.92045325      0.88436715
