
     RDKit          3D

  0  0  0  0  0  0  0  0  0  0999 V3000
M  V30 BEGIN CTAB
M  V30 COUNTS 45 51 0 0 0
M  V30 BEGIN ATOM
M  V30 1 C -5.3390 0.2137 2.6879 0
M  V30 2 C -4.2895 0.2636 1.7622 0
M  V30 3 C -4.5959 0.0871 0.4448 0
M  V30 4 C -5.9205 -0.1396 0.0475 0
M  V30 5 C -6.9311 -0.1828 0.9890 0
M  V30 6 C -6.6399 -0.0044 2.3208 0
M  V30 7 C -3.8387 0.0503 -0.7101 0
M  V30 8 C -4.7128 -0.2043 -1.7805 0
M  V30 9 N -5.9543 -0.3095 -1.2781 0
M  V30 10 C -4.2650 -0.3327 -3.0724 0
M  V30 11 C -2.9204 -0.2025 -3.2967 0
M  V30 12 C -2.0617 0.0497 -2.2632 0
M  V30 13 C -2.4916 0.1900 -0.9175 0
M  V30 14 H -1.0083 0.1586 -2.4371 0
M  V30 15 H -6.8191 -0.4962 -1.8370 0
M  V30 16 H -2.5818 -0.3082 -4.3179 0
M  V30 17 H -3.3232 0.4011 2.1726 0
M  V30 18 H -7.9465 -0.3594 0.6475 0
M  V30 19 H -7.4591 -0.0461 3.0091 0
M  V30 20 H -5.1270 0.3527 3.7505 0
M  V30 21 C 4.2231 0.4224 1.0257 0
M  V30 22 N 3.9055 1.1184 2.1576 0
M  V30 23 O 2.6459 1.3176 2.2121 0
M  V30 24 C 2.0238 0.8050 1.1810 0
M  V30 25 C 3.0196 0.2266 0.4089 0
M  V30 26 C 0.6013 0.8340 0.9032 0
M  V30 27 N -0.3211 1.4119 1.6913 0
M  V30 28 O -1.4717 1.2628 1.1676 0
M  V30 29 C -1.5064 0.6244 0.0538 0
M  V30 30 C -0.1260 0.3259 -0.1442 0
M  V30 31 H 0.2784 -0.2151 -0.9774 0
M  V30 32 H 2.8173 -0.2762 -0.5084 0
M  V30 33 N 6.9860 -1.7100 -2.0300 0
M  V30 34 C 7.0855 -1.0515 -0.8667 0
M  V30 35 C 5.7990 -0.6780 -0.5166 0
M  V30 36 N 5.0056 -1.1335 -1.4883 0
M  V30 37 O 5.7381 -1.7385 -2.3671 0
M  V30 38 C 5.5472 0.0237 0.6404 0
M  V30 39 C 6.6189 0.3633 1.4758 0
M  V30 40 C 7.8845 -0.0115 1.1185 0
M  V30 41 C 8.1281 -0.7072 -0.0301 0
M  V30 42 H 8.7399 0.2306 1.7350 0
M  V30 43 H 6.4251 0.9174 2.3906 0
M  V30 44 H -4.9569 -0.5306 -3.8863 0
M  V30 45 H 9.1346 -1.0126 -0.3269 0
M  V30 END ATOM
M  V30 BEGIN BOND
M  V30 0 1 1 20
M  V30 1 1 2 17
M  V30 2 2 2 1
M  V30 3 1 3 2
M  V30 4 2 4 3
M  V30 5 1 4 5
M  V30 6 2 5 6
M  V30 7 1 6 1
M  V30 8 1 6 19
M  V30 9 1 7 3
M  V30 10 1 8 9
M  V30 11 2 8 7
M  V30 12 1 9 4
M  V30 13 1 10 8
M  V30 14 2 11 10
M  V30 15 1 11 12
M  V30 16 2 12 13
M  V30 17 1 13 7
M  V30 18 1 14 12
M  V30 19 1 15 9
M  V30 20 1 16 11
M  V30 21 1 18 5
M  V30 22 2 21 22
M  V30 23 1 23 22
M  V30 24 1 24 23
M  V30 25 1 25 21
M  V30 26 2 25 24
M  V30 27 1 26 24
M  V30 28 1 26 30
M  V30 29 2 27 26
M  V30 30 1 28 27
M  V30 31 1 28 29
M  V30 32 2 29 30
M  V30 33 1 30 31
M  V30 34 1 32 25
M  V30 35 2 34 33
M  V30 36 2 35 36
M  V30 37 1 35 34
M  V30 38 1 36 37
M  V30 39 1 37 33
M  V30 40 1 38 35
M  V30 41 2 39 38
M  V30 42 1 39 40
M  V30 43 2 40 41
M  V30 44 1 41 34
M  V30 45 1 42 40
M  V30 46 1 43 39
M  V30 47 1 13 29
M  V30 48 1 21 38
M  V30 49 1 10 44
M  V30 50 1 41 45
M  V30 END BOND
M  V30 END CTAB
M  END

$$$$
