47

C         -5.99000       -1.96450       -0.88290
C         -4.85370       -1.20120       -0.61110
C         -5.00160       -0.08520        0.16870
C         -6.26250        0.26070        0.67230
C         -7.34960       -0.52760        0.37360
C         -7.22700       -1.65300       -0.41030
C         -4.12080        0.86350        0.64650
C         -4.87160        1.75210        1.43140
N         -6.14070        1.35680        1.41780
C         -4.28900        2.81280        2.09150
C         -2.93600        2.99730        1.97010
C         -2.22030        2.12710        1.19970
C         -2.78070        1.03370        0.50900
H         -1.17400        2.28690        1.11320
H         -6.94090        1.82180        1.91140
H         -2.46800        3.83920        2.49610
H         -3.93860       -1.56350       -1.00280
H         -8.31740       -0.25340        0.76480
H         -8.10680       -2.24120       -0.61980
H         -5.90520       -2.86050       -1.50370
C          3.68460       -0.93190       -1.11730
N          3.26670       -1.62730       -2.21850
O          1.98630       -1.52940       -2.32490
C          1.47460       -0.81400       -1.37580
C          2.54600       -0.40800       -0.57130
C          0.08620       -0.48750       -1.16800
N         -0.94820       -0.87660       -1.94040
O         -2.04280       -0.40400       -1.46120
C         -1.91650        0.30450       -0.39810
C         -0.50050        0.26400       -0.18080
H          0.00410        0.74130        0.62350
H          2.40480        0.20520        0.30030
C          7.37650       -1.35930       -1.02300
C          7.76220       -0.64910        0.09350
C          6.75930       -0.03060        0.80460
C          5.41860       -0.10210        0.43800
C          5.06830       -0.81110       -0.66990
C          6.06340       -1.44240       -1.40130
O          4.48650        0.56650        1.23620
O          7.11990        0.70380        1.95170
O          9.10730       -0.55730        0.49060
H          5.79300       -2.00940       -2.28540
H          4.75940        1.07920        2.04130
H          8.08490        0.77350        2.24230
H          9.78440       -1.04060       -0.08570
H         -4.86330        3.50340        2.70120
H          8.12880       -1.86260       -1.61410
