
     RDKit          3D

  0  0  0  0  0  0  0  0  0  0999 V3000
M  V30 BEGIN CTAB
M  V30 COUNTS 47 52 0 0 0
M  V30 BEGIN ATOM
M  V30 1 C -5.9900 -1.9645 -0.8829 0
M  V30 2 C -4.8537 -1.2012 -0.6111 0
M  V30 3 C -5.0016 -0.0852 0.1687 0
M  V30 4 C -6.2625 0.2607 0.6723 0
M  V30 5 C -7.3496 -0.5276 0.3736 0
M  V30 6 C -7.2270 -1.6530 -0.4103 0
M  V30 7 C -4.1208 0.8635 0.6465 0
M  V30 8 C -4.8716 1.7521 1.4314 0
M  V30 9 N -6.1407 1.3568 1.4178 0
M  V30 10 C -4.2890 2.8128 2.0915 0
M  V30 11 C -2.9360 2.9973 1.9701 0
M  V30 12 C -2.2203 2.1271 1.1997 0
M  V30 13 C -2.7807 1.0337 0.5090 0
M  V30 14 H -1.1740 2.2869 1.1132 0
M  V30 15 H -6.9409 1.8218 1.9114 0
M  V30 16 H -2.4680 3.8392 2.4961 0
M  V30 17 H -3.9386 -1.5635 -1.0028 0
M  V30 18 H -8.3174 -0.2534 0.7648 0
M  V30 19 H -8.1068 -2.2412 -0.6198 0
M  V30 20 H -5.9052 -2.8605 -1.5037 0
M  V30 21 C 3.6846 -0.9319 -1.1173 0
M  V30 22 N 3.2667 -1.6273 -2.2185 0
M  V30 23 O 1.9863 -1.5294 -2.3249 0
M  V30 24 C 1.4746 -0.8140 -1.3758 0
M  V30 25 C 2.5460 -0.4080 -0.5713 0
M  V30 26 C 0.0862 -0.4875 -1.1680 0
M  V30 27 N -0.9482 -0.8766 -1.9404 0
M  V30 28 O -2.0428 -0.4040 -1.4612 0
M  V30 29 C -1.9165 0.3045 -0.3981 0
M  V30 30 C -0.5005 0.2640 -0.1808 0
M  V30 31 H 0.0041 0.7413 0.6235 0
M  V30 32 H 2.4048 0.2052 0.3003 0
M  V30 33 C 7.3765 -1.3593 -1.0230 0
M  V30 34 C 7.7622 -0.6491 0.0935 0
M  V30 35 C 6.7593 -0.0306 0.8046 0
M  V30 36 C 5.4186 -0.1021 0.4380 0
M  V30 37 C 5.0683 -0.8111 -0.6699 0
M  V30 38 C 6.0634 -1.4424 -1.4013 0
M  V30 39 O 4.4865 0.5665 1.2362 0
M  V30 40 O 7.1199 0.7038 1.9517 0
M  V30 41 O 9.1073 -0.5573 0.4906 0
M  V30 42 H 5.7930 -2.0094 -2.2854 0
M  V30 43 H 4.7594 1.0792 2.0413 0
M  V30 44 H 8.0849 0.7735 2.2423 0
M  V30 45 H 9.7844 -1.0406 -0.0857 0
M  V30 46 H -4.8633 3.5034 2.7012 0
M  V30 47 H 8.1288 -1.8626 -1.6141 0
M  V30 END ATOM
M  V30 BEGIN BOND
M  V30 0 1 1 20
M  V30 1 1 2 17
M  V30 2 2 2 1
M  V30 3 1 3 2
M  V30 4 2 4 3
M  V30 5 1 4 5
M  V30 6 2 5 6
M  V30 7 1 6 1
M  V30 8 1 6 19
M  V30 9 1 7 3
M  V30 10 1 8 9
M  V30 11 2 8 7
M  V30 12 1 9 4
M  V30 13 1 10 8
M  V30 14 2 11 10
M  V30 15 1 11 12
M  V30 16 2 12 13
M  V30 17 1 13 7
M  V30 18 1 14 12
M  V30 19 1 15 9
M  V30 20 1 16 11
M  V30 21 1 18 5
M  V30 22 2 21 22
M  V30 23 1 23 22
M  V30 24 1 24 23
M  V30 25 1 25 21
M  V30 26 2 25 24
M  V30 27 1 26 24
M  V30 28 1 26 30
M  V30 29 2 27 26
M  V30 30 1 28 27
M  V30 31 1 28 29
M  V30 32 2 29 30
M  V30 33 1 30 31
M  V30 34 1 32 25
M  V30 35 2 33 34
M  V30 36 1 33 38
M  V30 37 1 34 35
M  V30 38 2 35 36
M  V30 39 1 35 40
M  V30 40 1 36 39
M  V30 41 1 37 36
M  V30 42 2 38 37
M  V30 43 1 39 43
M  V30 44 1 41 34
M  V30 45 1 42 38
M  V30 46 1 44 40
M  V30 47 1 45 41
M  V30 48 1 13 29
M  V30 49 1 21 37
M  V30 50 1 10 46
M  V30 51 1 33 47
M  V30 END BOND
M  V30 END CTAB
M  END

$$$$
