86

C          9.49210        0.92330       -2.12700
C          8.42590        0.38130       -1.38710
C          8.61540       -0.87270       -0.86090
C          9.80140       -1.56360       -1.05830
C         10.82250       -1.01550       -1.78110
C         10.66310        0.23980       -2.31850
C          7.75750       -1.67280       -0.11620
C          8.48590       -2.85200        0.10390
N          9.68930       -2.75690       -0.46300
C          7.94550       -3.91100        0.78950
C          6.66180       -3.78760        1.26100
C          5.97240       -2.64320        1.04470
C          6.48740       -1.52620        0.34660
H          4.96790       -2.58200        1.43280
H         10.43830       -3.48160       -0.45680
H          6.19540       -4.60050        1.80620
H          7.56700        0.98080       -1.33470
H         11.74020       -1.58420       -1.91580
H         11.49120        0.64830       -2.88590
H          9.41050        1.90710       -2.56740
C          0.14190        1.41920        0.68020
N          0.63460        2.62850        0.54210
O          1.91590        2.55780        0.43460
C          2.37260        1.33570        0.48960
C          1.24110        0.56370        0.65010
C          3.74780        0.87750        0.40350
N          4.82410        1.66620        0.23610
O          5.88560        0.94520        0.19830
C          5.69980       -0.31560        0.32240
C          4.27320       -0.38440        0.46140
H          3.68660       -1.27590        0.59020
H          1.24020       -0.51130        0.73410
C         -2.77450       -0.80600        1.38240
C         -1.49980       -0.34240        1.17590
C         -1.22690        0.98220        0.82870
C         -2.31210        1.83480        0.69160
C         -3.60200        1.40470        0.89740
C         -3.83550        0.06030        1.24810
C         -4.69410        2.26160        0.83830
C         -5.95920        1.74170        1.12760
C         -6.19420        0.44890        1.46220
C         -5.10260       -0.40560        1.52140
N         -5.41500       -1.74660        1.87580
C         -6.24440       -2.40820        1.14430
C         -6.59670       -3.83590        1.49860
N         -4.62410        3.63070        0.55650
C         -5.35390        4.20190       -0.32160
C         -6.35910        3.54430       -1.17090
N         -2.09640        3.17220        0.22160
C         -1.91420        3.33440       -1.09270
C         -1.93600        2.20530       -2.03340
N         -2.97350       -2.16970        1.73660
C         -2.51190       -3.08830        0.96820
C         -2.76450       -4.49250        1.41890
C         -1.78950       -2.85220       -0.29210
C         -6.90500       -1.89200       -0.07520
C         -5.20300        5.68630       -0.49800
C         -1.67190        4.68840       -1.60080
H         -0.64550       -0.98770        1.28090
H         -6.78970        2.43770        1.09850
H         -7.05330       -2.73510       -0.82270
H         -6.25120       -1.18290       -0.62080
H         -7.90410       -1.48340        0.07630
H         -6.53000       -4.41320        0.53240
H         -7.62980       -3.92670        1.84150
H         -5.85070       -4.23740        2.20360
H         -0.70210       -2.88650       -0.11330
H         -2.14680       -1.94410       -0.81730
H         -2.06330       -3.68910       -1.00810
H         -3.64460       -4.83950        0.85280
H         -2.91940       -4.54560        2.49680
H         -1.83880       -5.06160        1.18200
H         -0.94380        1.85530       -2.34990
H         -2.49370        2.52550       -2.94280
H         -2.44420        1.32480       -1.55610
H         -1.58110        5.42650       -0.76600
H         -0.74230        4.78380       -2.19170
H         -2.56070        5.01150       -2.18380
H         -4.20610        6.00150       -0.17810
H         -5.98300        6.22110        0.10490
H         -5.34800        5.95600       -1.54800
H         -6.25210        4.04030       -2.19080
H         -7.39810        3.70110       -0.80670
H         -6.14550        2.47260       -1.38610
H          8.52670       -4.82370        0.95240
H         -7.19300        0.10280        1.67990
