
     RDKit          3D

  0  0  0  0  0  0  0  0  0  0999 V3000
M  V30 BEGIN CTAB
M  V30 COUNTS 86 92 0 0 0
M  V30 BEGIN ATOM
M  V30 1 C 9.4921 0.9233 -2.1270 0
M  V30 2 C 8.4259 0.3813 -1.3871 0
M  V30 3 C 8.6154 -0.8727 -0.8609 0
M  V30 4 C 9.8014 -1.5636 -1.0583 0
M  V30 5 C 10.8225 -1.0155 -1.7811 0
M  V30 6 C 10.6631 0.2398 -2.3185 0
M  V30 7 C 7.7575 -1.6728 -0.1162 0
M  V30 8 C 8.4859 -2.8520 0.1039 0
M  V30 9 N 9.6893 -2.7569 -0.4630 0
M  V30 10 C 7.9455 -3.9110 0.7895 0
M  V30 11 C 6.6618 -3.7876 1.2610 0
M  V30 12 C 5.9724 -2.6432 1.0447 0
M  V30 13 C 6.4874 -1.5262 0.3466 0
M  V30 14 H 4.9679 -2.5820 1.4328 0
M  V30 15 H 10.4383 -3.4816 -0.4568 0
M  V30 16 H 6.1954 -4.6005 1.8062 0
M  V30 17 H 7.5670 0.9808 -1.3347 0
M  V30 18 H 11.7402 -1.5842 -1.9158 0
M  V30 19 H 11.4912 0.6483 -2.8859 0
M  V30 20 H 9.4105 1.9071 -2.5674 0
M  V30 21 C 0.1419 1.4192 0.6802 0
M  V30 22 N 0.6346 2.6285 0.5421 0
M  V30 23 O 1.9159 2.5578 0.4346 0
M  V30 24 C 2.3726 1.3357 0.4896 0
M  V30 25 C 1.2411 0.5637 0.6501 0
M  V30 26 C 3.7478 0.8775 0.4035 0
M  V30 27 N 4.8241 1.6662 0.2361 0
M  V30 28 O 5.8856 0.9452 0.1983 0
M  V30 29 C 5.6998 -0.3156 0.3224 0
M  V30 30 C 4.2732 -0.3844 0.4614 0
M  V30 31 H 3.6866 -1.2759 0.5902 0
M  V30 32 H 1.2402 -0.5113 0.7341 0
M  V30 33 C -2.7745 -0.8060 1.3824 0
M  V30 34 C -1.4998 -0.3424 1.1759 0
M  V30 35 C -1.2269 0.9822 0.8287 0
M  V30 36 C -2.3121 1.8348 0.6916 0
M  V30 37 C -3.6020 1.4047 0.8974 0
M  V30 38 C -3.8355 0.0603 1.2481 0
M  V30 39 C -4.6941 2.2616 0.8383 0
M  V30 40 C -5.9592 1.7417 1.1276 0
M  V30 41 C -6.1942 0.4489 1.4622 0
M  V30 42 C -5.1026 -0.4056 1.5214 0
M  V30 43 N -5.4150 -1.7466 1.8758 0
M  V30 44 C -6.2444 -2.4082 1.1443 0
M  V30 45 C -6.5967 -3.8359 1.4986 0
M  V30 46 N -4.6241 3.6307 0.5565 0
M  V30 47 C -5.3539 4.2019 -0.3216 0
M  V30 48 C -6.3591 3.5443 -1.1709 0
M  V30 49 N -2.0964 3.1722 0.2216 0
M  V30 50 C -1.9142 3.3344 -1.0927 0
M  V30 51 C -1.9360 2.2053 -2.0334 0
M  V30 52 N -2.9735 -2.1697 1.7366 0
M  V30 53 C -2.5119 -3.0883 0.9682 0
M  V30 54 C -2.7645 -4.4925 1.4189 0
M  V30 55 C -1.7895 -2.8522 -0.2921 0
M  V30 56 C -6.9050 -1.8920 -0.0752 0
M  V30 57 C -5.2030 5.6863 -0.4980 0
M  V30 58 C -1.6719 4.6884 -1.6008 0
M  V30 59 H -0.6455 -0.9877 1.2809 0
M  V30 60 H -6.7897 2.4377 1.0985 0
M  V30 61 H -7.0533 -2.7351 -0.8227 0
M  V30 62 H -6.2512 -1.1829 -0.6208 0
M  V30 63 H -7.9041 -1.4834 0.0763 0
M  V30 64 H -6.5300 -4.4132 0.5324 0
M  V30 65 H -7.6298 -3.9267 1.8415 0
M  V30 66 H -5.8507 -4.2374 2.2036 0
M  V30 67 H -0.7021 -2.8865 -0.1133 0
M  V30 68 H -2.1468 -1.9441 -0.8173 0
M  V30 69 H -2.0633 -3.6891 -1.0081 0
M  V30 70 H -3.6446 -4.8395 0.8528 0
M  V30 71 H -2.9194 -4.5456 2.4968 0
M  V30 72 H -1.8388 -5.0616 1.1820 0
M  V30 73 H -0.9438 1.8553 -2.3499 0
M  V30 74 H -2.4937 2.5255 -2.9428 0
M  V30 75 H -2.4442 1.3248 -1.5561 0
M  V30 76 H -1.5811 5.4265 -0.7660 0
M  V30 77 H -0.7423 4.7838 -2.1917 0
M  V30 78 H -2.5607 5.0115 -2.1838 0
M  V30 79 H -4.2061 6.0015 -0.1781 0
M  V30 80 H -5.9830 6.2211 0.1049 0
M  V30 81 H -5.3480 5.9560 -1.5480 0
M  V30 82 H -6.2521 4.0403 -2.1908 0
M  V30 83 H -7.3981 3.7011 -0.8067 0
M  V30 84 H -6.1455 2.4726 -1.3861 0
M  V30 85 H 8.5267 -4.8237 0.9524 0
M  V30 86 H -7.1930 0.1028 1.6799 0
M  V30 END ATOM
M  V30 BEGIN BOND
M  V30 0 1 1 20
M  V30 1 1 2 17
M  V30 2 2 2 1
M  V30 3 1 3 2
M  V30 4 2 4 3
M  V30 5 1 4 5
M  V30 6 2 5 6
M  V30 7 1 6 1
M  V30 8 1 6 19
M  V30 9 1 7 3
M  V30 10 1 8 9
M  V30 11 2 8 7
M  V30 12 1 9 4
M  V30 13 1 10 8
M  V30 14 2 11 10
M  V30 15 1 11 12
M  V30 16 2 12 13
M  V30 17 1 13 7
M  V30 18 1 14 12
M  V30 19 1 15 9
M  V30 20 1 16 11
M  V30 21 1 18 5
M  V30 22 2 21 22
M  V30 23 1 23 22
M  V30 24 1 24 23
M  V30 25 1 25 21
M  V30 26 2 25 24
M  V30 27 1 26 24
M  V30 28 1 26 30
M  V30 29 2 27 26
M  V30 30 1 28 27
M  V30 31 1 28 29
M  V30 32 2 29 30
M  V30 33 1 30 31
M  V30 34 1 32 25
M  V30 35 1 33 38
M  V30 36 1 33 52
M  V30 37 2 34 33
M  V30 38 2 35 36
M  V30 39 1 35 34
M  V30 40 1 36 37
M  V30 41 2 37 39
M  V30 42 1 37 38
M  V30 43 2 38 42
M  V30 44 1 39 40
M  V30 45 1 40 60
M  V30 46 2 40 41
M  V30 47 1 42 41
M  V30 48 1 42 43
M  V30 49 2 43 44
M  V30 50 1 44 56
M  V30 51 1 45 65
M  V30 52 1 45 44
M  V30 53 1 45 64
M  V30 54 2 46 47
M  V30 55 1 46 39
M  V30 56 1 47 57
M  V30 57 1 48 82
M  V30 58 1 48 47
M  V30 59 1 49 36
M  V30 60 2 50 49
M  V30 61 1 51 50
M  V30 62 1 51 75
M  V30 63 2 52 53
M  V30 64 1 53 55
M  V30 65 1 54 53
M  V30 66 1 54 71
M  V30 67 1 55 68
M  V30 68 1 55 69
M  V30 69 1 56 62
M  V30 70 1 56 61
M  V30 71 1 57 79
M  V30 72 1 57 81
M  V30 73 1 58 77
M  V30 74 1 58 50
M  V30 75 1 59 34
M  V30 76 1 63 56
M  V30 77 1 66 45
M  V30 78 1 67 55
M  V30 79 1 70 54
M  V30 80 1 72 54
M  V30 81 1 73 51
M  V30 82 1 74 51
M  V30 83 1 76 58
M  V30 84 1 78 58
M  V30 85 1 80 57
M  V30 86 1 83 48
M  V30 87 1 84 48
M  V30 88 1 13 29
M  V30 89 1 21 35
M  V30 90 1 10 85
M  V30 91 1 41 86
M  V30 END BOND
M  V30 END CTAB
M  END

$$$$
