   52
Geometry Step: 2698
    C     -6.92803581      0.46914466     -3.69643866      4.11434380
    C     -6.45553428      0.20533464     -2.41362994      4.07982786
    C     -7.31241190     -0.40985607     -1.48074325      4.03093449
    C     -8.63148247     -0.74814046     -1.89451580      3.86717372
    C     -9.11238802     -0.47703834     -3.18466644      4.16489087
    C     -8.24002929      0.13803925     -4.07877885      4.06670672
    C     -7.18343115     -0.85648706     -0.10234805      4.04159008
    C     -8.43227302     -1.45957425      0.23386960      3.86843080
    N     -9.28913107     -1.36826572     -0.84653021      5.17455573
    C     -8.68545399     -2.05830413      1.47665022      4.15921461
    C     -7.64795758     -2.06685499      2.40666404      4.07316352
    C     -6.41016040     -1.48525814      2.10648914      4.13554071
    C     -6.14827645     -0.85682497      0.87338632      3.97781668
    H     -5.62934517     -1.49680940      2.86363251      0.91588453
    H    -10.23470402     -1.72940037     -0.87595206      0.78416303
    H     -7.79820500     -2.52638054      3.37929327      0.91682308
    H     -5.43972540      0.47634535     -2.14152537      0.89617096
    H    -10.12564468     -0.74238502     -3.47418627      0.91810594
    H     -8.57660281      0.36374496     -5.08716980      0.92161610
    H     -6.27103323      0.94487171     -4.41927605      0.91854485
    S     -0.13375600     -0.17855521      2.03404561      6.06770551
    C      1.22918489      0.85077575      1.54169181      3.81584064
    N      0.89060953      1.77047473      0.64681279      5.16556063
    N     -0.42513166      1.73590838      0.29033053      5.15426236
    C     -1.11493680      0.78776119      0.90980059      3.83083838
    C     -2.52693666      0.53630044      0.71123427      3.83804845
    N     -3.30169038      1.23215975     -0.10984492      5.15750403
    N     -4.59802076      0.80240580     -0.12442807      5.18341026
    C     -4.84032626     -0.22623297      0.67345371      3.80034964
    S     -3.38816339     -0.75475110      1.56530912      6.06767299
    C      2.58112141      0.73980051      2.06272722      3.96739710
    C      2.94701087     -0.17447137      2.99546526      4.09384193
    S      4.56685823     -0.36673921      3.69504278      6.02735758
    C      5.63260544      0.23014714      2.39178303      3.96294932
    C      5.28127398      1.15057793      1.45923803      3.95689399
    S      3.69783480      1.96603621      1.35572722      6.03956427
    S      7.25545608     -0.50097670      2.26176581      6.03160336
    C      7.75146900      0.44349172      0.82520587      3.98378987
    S      6.48384129      1.54069548      0.20154865      6.02462680
    C      8.97970096      0.33413343      0.25758722      3.97999643
    S     10.24631925     -0.76301037      0.88229692      6.03390044
    C     11.44752645     -0.37467497     -0.37940870      3.95333911
    C     11.09890830      0.54764907     -1.31115799      3.95323390
    S      9.47551741      1.27694987     -1.17871881      6.03185792
    S     13.04275777     -1.17132710     -0.27753078      6.04858467
    C     14.12802711      0.09039423     -0.93323848      4.07096979
    C     13.78339069      1.00195855     -1.85432420      4.07079352
    S     12.16921946      1.13988930     -2.61238783      6.04755918
    H     14.50590819      1.74405153     -2.18894070      0.90138010
    H      2.20306944     -0.87277006      3.37922861      0.89770614
    H     -9.64951515     -2.50657003      1.69969194      0.91447927
    H     15.13249223      0.08651696     -0.51403089      0.90148438
