78

C          7.69940        0.71050       -3.63260
C          7.26280        0.20810       -2.40340
C          8.20420       -0.21750       -1.51400
C          9.54710       -0.13870       -1.86740
C          9.97160        0.36160       -3.09160
C          9.02020        0.79240       -3.98380
C          8.11740       -0.78320       -0.25710
C          9.44720       -1.04660        0.12170
N         10.26830       -0.64780       -0.86070
C          9.73600       -1.65850        1.31890
C          8.70260       -2.00900        2.14510
C          7.42270       -1.74560        1.77250
C          7.08190       -1.11210        0.54500
H          6.55420       -2.00250        2.38850
H         11.32880       -0.73750       -0.81480
H          8.91150       -2.48950        3.07950
H          6.21870        0.16240       -2.28710
H         11.03060        0.39890       -3.30780
H          9.35500        1.18040       -4.93410
H          6.96830        1.05180       -4.34580
S          0.47940        0.76250        0.30960
C          1.65780       -0.37670        0.77120
N          0.90080       -1.27890        1.38790
N         -0.34250       -1.09180        1.46830
C         -0.89840       -0.00720        0.94480
C          3.11850       -0.39060        0.56350
N          3.87570        0.51380       -0.05520
N          5.11760        0.31000       -0.12330
C          5.71280       -0.71570        0.36490
S          4.29360       -1.52560        1.02740
C         -4.98680        1.02310        1.10760
C         -4.11200        1.87610        0.46980
C         -2.74760        1.51510        0.40830
C         -2.32290        0.33980        0.97700
C         -3.23920       -0.48310        1.60430
C         -4.58480       -0.15820        1.68210
N         -2.80910       -1.69240        2.17410
C         -2.94190       -2.86150        1.63050
C         -3.58190       -3.04600        0.30480
N         -5.52160       -0.97600        2.32730
C         -6.66020       -1.35210        1.92050
C         -7.30600       -1.02130        0.63840
N         -4.48250        3.09550       -0.11400
C         -5.48500        3.40140       -0.81190
C         -6.53590        2.41640       -1.15850
N         -1.86100        2.40380       -0.25930
C         -1.78800        2.38060       -1.54410
C         -2.55560        1.49100       -2.42840
C         -2.46480       -4.10030        2.30360
C         -7.43600       -2.23830        2.86290
C         -5.67700        4.80210       -1.34350
C         -0.85830        3.36290       -2.20390
H         -2.25690       -3.93140        3.37800
H         -1.54750       -4.43120        1.77100
H         -3.20460       -4.92750        2.16280
H         -3.06960       -3.84280       -0.27330
H         -4.67160       -3.23400        0.37440
H         -3.45030       -2.11340       -0.30690
H         -1.13150        3.52430       -3.26560
H         -0.85810        4.32760       -1.65150
H          0.15060        2.94130       -2.08540
H         -3.27130        2.12180       -3.00290
H         -3.19590        0.78360       -1.84330
H         -1.92440        0.94560       -3.13110
H         -7.04750        2.71830       -2.11650
H         -6.17650        1.38530       -1.23570
H         -7.35240        2.52760       -0.38780
H         -4.75660        5.39660       -1.24650
H         -6.54270        5.25140       -0.82340
H         -5.97940        4.66440       -2.40580
H         -6.79110       -2.97970        3.34450
H         -7.83180       -1.56710        3.65800
H         -8.25720       -2.76530        2.33970
H         -6.54110       -0.75060       -0.14440
H         -7.82020       -1.92220        0.18970
H         -8.02390       -0.19940        0.80220
H         10.78580       -1.85530        1.59340
H         -6.04020        1.27600        1.17630
