
     RDKit          3D

  0  0  0  0  0  0  0  0  0  0999 V3000
M  V30 BEGIN CTAB
M  V30 COUNTS 78 83 0 0 0
M  V30 BEGIN ATOM
M  V30 1 C 7.6994 0.7105 -3.6326 0
M  V30 2 C 7.2628 0.2081 -2.4034 0
M  V30 3 C 8.2042 -0.2175 -1.5140 0
M  V30 4 C 9.5471 -0.1387 -1.8674 0
M  V30 5 C 9.9716 0.3616 -3.0916 0
M  V30 6 C 9.0202 0.7924 -3.9838 0
M  V30 7 C 8.1174 -0.7832 -0.2571 0
M  V30 8 C 9.4472 -1.0466 0.1217 0
M  V30 9 N 10.2683 -0.6478 -0.8607 0
M  V30 10 C 9.7360 -1.6585 1.3189 0
M  V30 11 C 8.7026 -2.0090 2.1451 0
M  V30 12 C 7.4227 -1.7456 1.7725 0
M  V30 13 C 7.0819 -1.1121 0.5450 0
M  V30 14 H 6.5542 -2.0025 2.3885 0
M  V30 15 H 11.3288 -0.7375 -0.8148 0
M  V30 16 H 8.9115 -2.4895 3.0795 0
M  V30 17 H 6.2187 0.1624 -2.2871 0
M  V30 18 H 11.0306 0.3989 -3.3078 0
M  V30 19 H 9.3550 1.1804 -4.9341 0
M  V30 20 H 6.9683 1.0518 -4.3458 0
M  V30 21 S 0.4794 0.7625 0.3096 0
M  V30 22 C 1.6578 -0.3767 0.7712 0
M  V30 23 N 0.9008 -1.2789 1.3879 0
M  V30 24 N -0.3425 -1.0918 1.4683 0
M  V30 25 C -0.8984 -0.0072 0.9448 0
M  V30 26 C 3.1185 -0.3906 0.5635 0
M  V30 27 N 3.8757 0.5138 -0.0552 0
M  V30 28 N 5.1176 0.3100 -0.1233 0
M  V30 29 C 5.7128 -0.7157 0.3649 0
M  V30 30 S 4.2936 -1.5256 1.0274 0
M  V30 31 C -4.9868 1.0231 1.1076 0
M  V30 32 C -4.1120 1.8761 0.4698 0
M  V30 33 C -2.7476 1.5151 0.4083 0
M  V30 34 C -2.3229 0.3398 0.9770 0
M  V30 35 C -3.2392 -0.4831 1.6043 0
M  V30 36 C -4.5848 -0.1582 1.6821 0
M  V30 37 N -2.8091 -1.6924 2.1741 0
M  V30 38 C -2.9419 -2.8615 1.6305 0
M  V30 39 C -3.5819 -3.0460 0.3048 0
M  V30 40 N -5.5216 -0.9760 2.3273 0
M  V30 41 C -6.6602 -1.3521 1.9205 0
M  V30 42 C -7.3060 -1.0213 0.6384 0
M  V30 43 N -4.4825 3.0955 -0.1140 0
M  V30 44 C -5.4850 3.4014 -0.8119 0
M  V30 45 C -6.5359 2.4164 -1.1585 0
M  V30 46 N -1.8610 2.4038 -0.2593 0
M  V30 47 C -1.7880 2.3806 -1.5441 0
M  V30 48 C -2.5556 1.4910 -2.4284 0
M  V30 49 C -2.4648 -4.1003 2.3036 0
M  V30 50 C -7.4360 -2.2383 2.8629 0
M  V30 51 C -5.6770 4.8021 -1.3435 0
M  V30 52 C -0.8583 3.3629 -2.2039 0
M  V30 53 H -2.2569 -3.9314 3.3780 0
M  V30 54 H -1.5475 -4.4312 1.7710 0
M  V30 55 H -3.2046 -4.9275 2.1628 0
M  V30 56 H -3.0696 -3.8428 -0.2733 0
M  V30 57 H -4.6716 -3.2340 0.3744 0
M  V30 58 H -3.4503 -2.1134 -0.3069 0
M  V30 59 H -1.1315 3.5243 -3.2656 0
M  V30 60 H -0.8581 4.3276 -1.6515 0
M  V30 61 H 0.1506 2.9413 -2.0854 0
M  V30 62 H -3.2713 2.1218 -3.0029 0
M  V30 63 H -3.1959 0.7836 -1.8433 0
M  V30 64 H -1.9244 0.9456 -3.1311 0
M  V30 65 H -7.0475 2.7183 -2.1165 0
M  V30 66 H -6.1765 1.3853 -1.2357 0
M  V30 67 H -7.3524 2.5276 -0.3878 0
M  V30 68 H -4.7566 5.3966 -1.2465 0
M  V30 69 H -6.5427 5.2514 -0.8234 0
M  V30 70 H -5.9794 4.6644 -2.4058 0
M  V30 71 H -6.7911 -2.9797 3.3445 0
M  V30 72 H -7.8318 -1.5671 3.6580 0
M  V30 73 H -8.2572 -2.7653 2.3397 0
M  V30 74 H -6.5411 -0.7506 -0.1444 0
M  V30 75 H -7.8202 -1.9222 0.1897 0
M  V30 76 H -8.0239 -0.1994 0.8022 0
M  V30 77 H 10.7858 -1.8553 1.5934 0
M  V30 78 H -6.0402 1.2760 1.1763 0
M  V30 END ATOM
M  V30 BEGIN BOND
M  V30 0 1 1 20
M  V30 1 1 2 17
M  V30 2 2 2 1
M  V30 3 1 3 2
M  V30 4 2 4 3
M  V30 5 1 4 5
M  V30 6 2 5 6
M  V30 7 1 6 1
M  V30 8 1 6 19
M  V30 9 1 7 3
M  V30 10 1 8 9
M  V30 11 2 8 7
M  V30 12 1 9 4
M  V30 13 1 10 8
M  V30 14 2 11 10
M  V30 15 1 11 12
M  V30 16 2 12 13
M  V30 17 1 13 7
M  V30 18 1 14 12
M  V30 19 1 15 9
M  V30 20 1 16 11
M  V30 21 1 18 5
M  V30 22 1 21 25
M  V30 23 1 21 22
M  V30 24 2 22 23
M  V30 25 1 24 23
M  V30 26 2 25 24
M  V30 27 1 26 22
M  V30 28 1 26 30
M  V30 29 1 27 28
M  V30 30 2 27 26
M  V30 31 2 28 29
M  V30 32 1 29 30
M  V30 33 1 31 36
M  V30 34 2 32 31
M  V30 35 1 32 33
M  V30 36 2 33 34
M  V30 37 1 34 35
M  V30 38 1 35 37
M  V30 39 1 36 40
M  V30 40 2 36 35
M  V30 41 2 37 38
M  V30 42 1 38 39
M  V30 43 1 39 58
M  V30 44 1 39 57
M  V30 45 1 39 56
M  V30 46 1 41 50
M  V30 47 2 41 40
M  V30 48 1 42 74
M  V30 49 1 42 75
M  V30 50 1 42 41
M  V30 51 1 43 32
M  V30 52 1 44 51
M  V30 53 2 44 43
M  V30 54 1 45 44
M  V30 55 1 46 33
M  V30 56 2 46 47
M  V30 57 1 47 52
M  V30 58 1 48 47
M  V30 59 1 48 63
M  V30 60 1 49 38
M  V30 61 1 49 53
M  V30 62 1 49 55
M  V30 63 1 50 71
M  V30 64 1 50 73
M  V30 65 1 51 69
M  V30 66 1 52 61
M  V30 67 1 54 49
M  V30 68 1 59 52
M  V30 69 1 60 52
M  V30 70 1 62 48
M  V30 71 1 64 48
M  V30 72 1 65 45
M  V30 73 1 66 45
M  V30 74 1 67 45
M  V30 75 1 68 51
M  V30 76 1 70 51
M  V30 77 1 72 50
M  V30 78 1 76 42
M  V30 79 1 13 29
M  V30 80 1 25 34
M  V30 81 1 10 77
M  V30 82 1 31 78
M  V30 END BOND
M  V30 END CTAB
M  END

$$$$
