67

C          6.63650        3.06740       -0.56730
C          6.44100        1.69960       -0.52340
C          7.30500        0.91730        0.18540
C          8.38910        1.49480        0.86890
C          8.57160        2.85270        0.81730
C          7.70720        3.65500        0.10540
C          7.35890       -0.44740        0.40570
C          8.47630       -0.64760        1.21720
N          9.07830        0.52400        1.48290
C          8.81310       -1.92280        1.62840
C          8.04040       -2.98770        1.23200
C          6.94470       -2.77900        0.43420
C          6.57570       -1.49420       -0.00100
H          6.32410       -3.60230        0.11150
H          9.94810        0.64890        2.07720
H          8.31800       -3.97180        1.56180
H          5.60800        1.31990       -1.05370
H          9.42500        3.25820        1.36160
H          7.89610        4.71870        0.09750
H          5.97100        3.72840       -1.12090
C         -0.57970       -0.56270       -0.89750
N          0.67660       -0.73390       -1.36340
C          1.73180       -0.85180       -0.55760
N          1.50630       -0.79410        0.76570
C          0.27540       -0.62510        1.28070
N         -0.76650       -0.51040        0.41130
C          3.07350       -1.03520       -1.12640
N          4.15570       -1.15680       -0.34830
C          5.41100       -1.32650       -0.84060
N          5.55660       -1.37280       -2.18800
C          4.48700       -1.25360       -3.00810
N          3.26270       -1.08660       -2.45520
H          4.55440       -1.28480       -4.07550
H          0.04270       -0.57290        2.32150
C         -7.96410       -0.78530       -1.19350
C         -9.32520       -0.67670       -1.01400
C         -9.88130        0.45470       -0.43180
C         -9.04530        1.45950       -0.04080
C         -7.67540        1.38530       -0.20500
C         -7.14970        0.26670       -0.77780
C         -5.71110        0.07840       -1.00990
C         -4.84840       -0.01390        0.04810
N         -3.54340       -0.18130       -0.22650
C         -3.05250       -0.26190       -1.50620
C         -3.89150       -0.17240       -2.53650
N         -5.22450       -0.00150       -2.27340
C         -1.72170       -0.43410       -1.79260
S         -1.69370       -0.46450       -3.49560
C         -3.36110       -0.25920       -3.80100
C         -5.35020        0.06350        1.41430
C         -4.92460        1.15660        2.17420
C         -5.30830        1.35600        3.47630
C         -6.15510        0.41550        4.03340
C         -6.58400       -0.66510        3.30300
C         -6.19240       -0.86180        1.98670
H         -6.51620       -1.69750        1.41540
H         -7.25080       -1.40850        3.73670
H         -6.46720        0.55890        5.06070
H         -4.96610        2.21750        4.05890
H         -4.25510        1.90330        1.73720
H         -7.00910        2.17830        0.09700
H         -9.42370        2.37480        0.42330
H        -10.95010        0.54360       -0.28930
H        -10.03430       -1.44440       -1.30650
H         -7.55260       -1.68050       -1.65160
H          9.69930       -2.06080        2.26900
H         -3.88630       -0.20840       -4.77150
