
     RDKit          3D

  0  0  0  0  0  0  0  0  0  0999 V3000
M  V30 BEGIN CTAB
M  V30 COUNTS 67 75 0 0 0
M  V30 BEGIN ATOM
M  V30 1 C 6.6365 3.0674 -0.5673 0
M  V30 2 C 6.4410 1.6996 -0.5234 0
M  V30 3 C 7.3050 0.9173 0.1854 0
M  V30 4 C 8.3891 1.4948 0.8689 0
M  V30 5 C 8.5716 2.8527 0.8173 0
M  V30 6 C 7.7072 3.6550 0.1054 0
M  V30 7 C 7.3589 -0.4474 0.4057 0
M  V30 8 C 8.4763 -0.6476 1.2172 0
M  V30 9 N 9.0783 0.5240 1.4829 0
M  V30 10 C 8.8131 -1.9228 1.6284 0
M  V30 11 C 8.0404 -2.9877 1.2320 0
M  V30 12 C 6.9447 -2.7790 0.4342 0
M  V30 13 C 6.5757 -1.4942 -0.0010 0
M  V30 14 H 6.3241 -3.6023 0.1115 0
M  V30 15 H 9.9481 0.6489 2.0772 0
M  V30 16 H 8.3180 -3.9718 1.5618 0
M  V30 17 H 5.6080 1.3199 -1.0537 0
M  V30 18 H 9.4250 3.2582 1.3616 0
M  V30 19 H 7.8961 4.7187 0.0975 0
M  V30 20 H 5.9710 3.7284 -1.1209 0
M  V30 21 C -0.5797 -0.5627 -0.8975 0
M  V30 22 N 0.6766 -0.7339 -1.3634 0
M  V30 23 C 1.7318 -0.8518 -0.5576 0
M  V30 24 N 1.5063 -0.7941 0.7657 0
M  V30 25 C 0.2754 -0.6251 1.2807 0
M  V30 26 N -0.7665 -0.5104 0.4113 0
M  V30 27 C 3.0735 -1.0352 -1.1264 0
M  V30 28 N 4.1557 -1.1568 -0.3483 0
M  V30 29 C 5.4110 -1.3265 -0.8406 0
M  V30 30 N 5.5566 -1.3728 -2.1880 0
M  V30 31 C 4.4870 -1.2536 -3.0081 0
M  V30 32 N 3.2627 -1.0866 -2.4552 0
M  V30 33 H 4.5544 -1.2848 -4.0755 0
M  V30 34 H 0.0427 -0.5729 2.3215 0
M  V30 35 C -7.9641 -0.7853 -1.1935 0
M  V30 36 C -9.3252 -0.6767 -1.0140 0
M  V30 37 C -9.8813 0.4547 -0.4318 0
M  V30 38 C -9.0453 1.4595 -0.0408 0
M  V30 39 C -7.6754 1.3853 -0.2050 0
M  V30 40 C -7.1497 0.2667 -0.7778 0
M  V30 41 C -5.7111 0.0784 -1.0099 0
M  V30 42 C -4.8484 -0.0139 0.0481 0
M  V30 43 N -3.5434 -0.1813 -0.2265 0
M  V30 44 C -3.0525 -0.2619 -1.5062 0
M  V30 45 C -3.8915 -0.1724 -2.5365 0
M  V30 46 N -5.2245 -0.0015 -2.2734 0
M  V30 47 C -1.7217 -0.4341 -1.7926 0
M  V30 48 S -1.6937 -0.4645 -3.4956 0
M  V30 49 C -3.3611 -0.2592 -3.8010 0
M  V30 50 C -5.3502 0.0635 1.4143 0
M  V30 51 C -4.9246 1.1566 2.1742 0
M  V30 52 C -5.3083 1.3560 3.4763 0
M  V30 53 C -6.1551 0.4155 4.0334 0
M  V30 54 C -6.5840 -0.6651 3.3030 0
M  V30 55 C -6.1924 -0.8618 1.9867 0
M  V30 56 H -6.5162 -1.6975 1.4154 0
M  V30 57 H -7.2508 -1.4085 3.7367 0
M  V30 58 H -6.4672 0.5589 5.0607 0
M  V30 59 H -4.9661 2.2175 4.0589 0
M  V30 60 H -4.2551 1.9033 1.7372 0
M  V30 61 H -7.0091 2.1783 0.0970 0
M  V30 62 H -9.4237 2.3748 0.4233 0
M  V30 63 H -10.9501 0.5436 -0.2893 0
M  V30 64 H -10.0343 -1.4444 -1.3065 0
M  V30 65 H -7.5526 -1.6805 -1.6516 0
M  V30 66 H 9.6993 -2.0608 2.2690 0
M  V30 67 H -3.8863 -0.2084 -4.7715 0
M  V30 END ATOM
M  V30 BEGIN BOND
M  V30 0 1 1 20
M  V30 1 1 2 17
M  V30 2 2 2 1
M  V30 3 1 3 2
M  V30 4 2 4 3
M  V30 5 1 4 5
M  V30 6 2 5 6
M  V30 7 1 6 1
M  V30 8 1 6 19
M  V30 9 1 7 3
M  V30 10 1 8 9
M  V30 11 2 8 7
M  V30 12 1 9 4
M  V30 13 1 10 8
M  V30 14 2 11 10
M  V30 15 1 11 12
M  V30 16 2 12 13
M  V30 17 1 13 7
M  V30 18 1 14 12
M  V30 19 1 15 9
M  V30 20 1 16 11
M  V30 21 1 18 5
M  V30 22 2 21 22
M  V30 23 1 21 26
M  V30 24 1 22 23
M  V30 25 1 23 27
M  V30 26 2 23 24
M  V30 27 1 25 24
M  V30 28 1 25 34
M  V30 29 2 26 25
M  V30 30 2 27 28
M  V30 31 1 28 29
M  V30 32 2 30 29
M  V30 33 1 31 30
M  V30 34 2 32 31
M  V30 35 1 32 27
M  V30 36 1 33 31
M  V30 37 2 35 36
M  V30 38 1 35 40
M  V30 39 1 36 37
M  V30 40 1 37 63
M  V30 41 2 37 38
M  V30 42 1 38 62
M  V30 43 1 39 38
M  V30 44 1 39 61
M  V30 45 2 40 39
M  V30 46 1 41 40
M  V30 47 1 41 42
M  V30 48 1 42 50
M  V30 49 2 43 42
M  V30 50 1 44 43
M  V30 51 1 45 46
M  V30 52 1 45 44
M  V30 53 2 46 41
M  V30 54 2 47 44
M  V30 55 1 48 47
M  V30 56 1 49 48
M  V30 57 2 49 45
M  V30 58 1 50 51
M  V30 59 1 51 60
M  V30 60 2 51 52
M  V30 61 1 52 59
M  V30 62 1 53 52
M  V30 63 1 53 58
M  V30 64 2 54 53
M  V30 65 2 55 50
M  V30 66 1 55 54
M  V30 67 1 56 55
M  V30 68 1 57 54
M  V30 69 1 64 36
M  V30 70 1 65 35
M  V30 71 1 13 29
M  V30 72 1 21 47
M  V30 73 1 10 66
M  V30 74 1 49 67
M  V30 END BOND
M  V30 END CTAB
M  END

$$$$
