   45
Geometry Step: 987
    C     -5.05113750     -2.12851028      1.15594908      4.11564940
    C     -4.08569805     -1.25951533      0.65258292      4.08650912
    C     -4.45674720      0.05616361      0.31918979      4.03227343
    C     -5.80204364      0.46206237      0.54571337      3.86664763
    C     -6.77827487     -0.41400547      1.04433224      4.16415721
    C     -6.38299237     -1.71680626      1.33941463      4.07168324
    C     -3.75067283      1.22528856     -0.17911207      4.06338952
    C     -4.69987105      2.28683772     -0.18950326      3.86463119
    N     -5.92908326      1.80201506      0.22209356      5.17673337
    C     -4.36467909      3.60275750     -0.54434515      4.17354171
    C     -3.03489673      3.85428079     -0.87791727      4.07071788
    C     -2.08289013      2.82541282     -0.88913384      4.14377906
    C     -2.41367706      1.49491187     -0.57293089      3.94137336
    H     -1.06109448      3.05497362     -1.18139028      0.91564843
    H     -6.77236220      2.35361119      0.32182207      0.78524760
    H     -2.72998694      4.86233637     -1.14534953      0.91982089
    H     -3.06009727     -1.59873331      0.54023136      0.91207545
    H     -7.80159598     -0.08468840      1.20379940      0.91865236
    H     -7.11145599     -2.42286219      1.72907242      0.92231365
    H     -4.77095439     -3.14577111      1.41517059      0.92022345
    N      3.03153119     -0.65559615     -0.28489485      5.33709351
    C      2.01876242     -1.45466114     -0.79357983      3.85571466
    C      2.41805206     -2.71892787     -1.20107595      4.14348754
    S      4.12578918     -2.92507332     -0.94195550      5.98225398
    C      4.20245911     -1.27352483     -0.29054565      3.78936946
    C      0.66544032     -0.92971591     -0.85919503      3.80327173
    S      0.29735917      0.70928281     -0.29526611      6.01272353
    C     -1.39474169      0.44617979     -0.70756998      4.00331147
    C     -1.53512545     -0.82078415     -1.24647733      3.98258815
    N     -0.39081578     -1.58121210     -1.32553700      5.32458996
    H      1.78482567     -3.48813511     -1.62304491      0.87979013
    H     -2.47009326     -1.21965020     -1.63359313      0.91512374
    N      6.94465593     -2.65918763     -0.28242638      5.14707356
    C      6.68276220     -1.41351153      0.14673771      3.90036731
    C      7.90593376     -0.83825547      0.61125461      3.87271852
    N      8.87863400     -1.75551717      0.44976065      5.14864745
    O      8.27284019     -2.83866408     -0.08855662      5.91475149
    C      7.93342272      0.48933709      1.12942597      4.11248903
    C      6.73778538      1.17459170      1.15717915      4.08356032
    C      5.51640467      0.60438765      0.69494148      4.09319640
    C      5.44717583     -0.68585461      0.18290564      4.00237460
    H      4.60788759      1.19836487      0.74449147      0.89974790
    H      6.71262996      2.19002691      1.54446150      0.91295831
    H     -5.10805082      4.39480649     -0.54307462      0.91585766
    H      8.85448667      0.94103481      1.48644557      0.90187164
