45

C         -5.17390       -1.99300        1.24490
C         -4.20380       -1.13670        0.73290
C         -4.53070        0.13400        0.36860
C         -5.86980        0.52080        0.54120
C         -6.82020       -0.31970        1.04370
C         -6.47460       -1.58970        1.39980
C         -3.82600        1.19620       -0.11710
C         -4.73250        2.23610       -0.23200
N         -5.94280        1.80930        0.16340
C         -4.34680        3.49280       -0.65050
C         -3.02500        3.73230       -0.96750
C         -2.14580        2.70270       -0.85620
C         -2.52040        1.39950       -0.43070
H         -1.11310        2.84760       -1.09220
H         -6.83950        2.36780        0.18900
H         -2.74340        4.72720       -1.29080
H         -3.20810       -1.50710        0.68500
H         -7.82520        0.00590        1.15940
H         -7.20550       -2.30040        1.80640
H         -4.91600       -3.00860        1.53480
N          3.14440       -0.78290       -0.30760
C          2.16160       -1.44560       -0.82430
C          2.43960       -2.66490       -1.39000
S          4.12370       -2.78040       -1.13780
C          4.36390       -1.28660       -0.33750
C          0.76120       -0.92550       -0.81930
S          0.18660        0.54660       -0.18030
C         -1.50980        0.36410       -0.58420
C         -1.46200       -0.84070       -1.18650
N         -0.32530       -1.46290       -1.29170
H          1.72980       -3.36030       -1.87280
H         -2.38260       -1.30330       -1.62200
N          7.18460       -2.52750       -0.44510
C          6.79900       -1.35540        0.07690
C          7.97070       -0.77820        0.58510
N          8.94490       -1.64750        0.32490
O          8.47780       -2.67970       -0.28350
C          7.93640        0.45070        1.20060
C          6.72070        1.09110        1.30030
C          5.54870        0.52680        0.79860
C          5.61790       -0.70060        0.19030
H          4.58700        1.01380        0.86760
H          6.67220        2.05530        1.77930
H         -5.07250        4.27650       -0.72790
H          8.84440        0.89960        1.59530
