
 OpenBabel08201816033D

 13 14  0  0  0  0  0  0  0  0999 V2000
    0.8845    2.1608    5.0993 N   0  0  0  0  0  0  0  0  0  0  0  0
    1.4503    1.5282    4.0619 C   0  0  0  0  0  0  0  0  0  0  0  0
    0.4204    1.3128    3.0482 C   0  0  0  0  0  0  0  0  0  0  0  0
   -0.7293    1.8232    3.5106 N   0  0  0  0  0  0  0  0  0  0  0  0
   -0.4435    2.3393    4.7605 O   0  0  0  0  0  0  0  0  0  0  0  0
    0.7096    0.6645    1.8282 C   0  0  0  0  0  0  0  0  0  0  0  0
    2.0425    0.2450    1.6579 C   0  0  0  0  0  0  0  0  0  0  0  0
    3.0424    0.4542    2.6423 C   0  0  0  0  0  0  0  0  0  0  0  0
    2.7802    1.0976    3.8665 C   0  0  0  0  0  0  0  0  0  0  0  0
   -0.5852    0.3667    0.4963 Br  0  0  0  0  0  0  0  0  0  0  0  0
    4.1366    1.3544    5.1445 Br  0  0  0  0  0  0  0  0  0  0  0  0
    4.0523    0.0988    2.4335 H   0  0  0  0  0  0  0  0  0  0  0  0
    2.3270   -0.2621    0.7351 H   0  0  0  0  0  0  0  0  0  0  0  0
  2  1  2  0  0  0  0
  3  4  2  0  0  0  0
  3  2  1  0  0  0  0
  4  5  1  0  0  0  0
  5  1  1  0  0  0  0
  6  3  1  0  0  0  0
  7  6  2  0  0  0  0
  7  8  1  0  0  0  0
  8  9  2  0  0  0  0
  9  2  1  0  0  0  0
  9 11  1  0  0  0  0
 10  6  1  0  0  0  0
 12  8  1  0  0  0  0
 13  7  1  0  0  0  0
M  END
