
     RDKit          3D

  0  0  0  0  0  0  0  0  0  0999 V3000
M  V30 BEGIN CTAB
M  V30 COUNTS 45 51 0 0 0
M  V30 BEGIN ATOM
M  V30 1 C -5.1739 -1.9930 1.2449 0
M  V30 2 C -4.2038 -1.1367 0.7329 0
M  V30 3 C -4.5307 0.1340 0.3686 0
M  V30 4 C -5.8698 0.5208 0.5412 0
M  V30 5 C -6.8202 -0.3197 1.0437 0
M  V30 6 C -6.4746 -1.5897 1.3998 0
M  V30 7 C -3.8260 1.1962 -0.1171 0
M  V30 8 C -4.7325 2.2361 -0.2320 0
M  V30 9 N -5.9428 1.8093 0.1634 0
M  V30 10 C -4.3468 3.4928 -0.6505 0
M  V30 11 C -3.0250 3.7323 -0.9675 0
M  V30 12 C -2.1458 2.7027 -0.8562 0
M  V30 13 C -2.5204 1.3995 -0.4307 0
M  V30 14 H -1.1131 2.8476 -1.0922 0
M  V30 15 H -6.8395 2.3678 0.1890 0
M  V30 16 H -2.7434 4.7272 -1.2908 0
M  V30 17 H -3.2081 -1.5071 0.6850 0
M  V30 18 H -7.8252 0.0059 1.1594 0
M  V30 19 H -7.2055 -2.3004 1.8064 0
M  V30 20 H -4.9160 -3.0086 1.5348 0
M  V30 21 N 3.1444 -0.7829 -0.3076 0
M  V30 22 C 2.1616 -1.4456 -0.8243 0
M  V30 23 C 2.4396 -2.6649 -1.3900 0
M  V30 24 S 4.1237 -2.7804 -1.1378 0
M  V30 25 C 4.3639 -1.2866 -0.3375 0
M  V30 26 C 0.7612 -0.9255 -0.8193 0
M  V30 27 S 0.1866 0.5466 -0.1803 0
M  V30 28 C -1.5098 0.3641 -0.5842 0
M  V30 29 C -1.4620 -0.8407 -1.1865 0
M  V30 30 N -0.3253 -1.4629 -1.2917 0
M  V30 31 H 1.7298 -3.3603 -1.8728 0
M  V30 32 H -2.3826 -1.3033 -1.6220 0
M  V30 33 N 7.1846 -2.5275 -0.4451 0
M  V30 34 C 6.7990 -1.3554 0.0769 0
M  V30 35 C 7.9707 -0.7782 0.5851 0
M  V30 36 N 8.9449 -1.6475 0.3249 0
M  V30 37 O 8.4778 -2.6797 -0.2835 0
M  V30 38 C 7.9364 0.4507 1.2006 0
M  V30 39 C 6.7207 1.0911 1.3003 0
M  V30 40 C 5.5487 0.5268 0.7986 0
M  V30 41 C 5.6179 -0.7006 0.1903 0
M  V30 42 H 4.5870 1.0138 0.8676 0
M  V30 43 H 6.6722 2.0553 1.7793 0
M  V30 44 H -5.0725 4.2765 -0.7279 0
M  V30 45 H 8.8444 0.8996 1.5953 0
M  V30 END ATOM
M  V30 BEGIN BOND
M  V30 0 1 1 20
M  V30 1 1 2 17
M  V30 2 2 2 1
M  V30 3 1 3 2
M  V30 4 2 4 3
M  V30 5 1 4 5
M  V30 6 2 5 6
M  V30 7 1 6 1
M  V30 8 1 6 19
M  V30 9 1 7 3
M  V30 10 1 8 9
M  V30 11 2 8 7
M  V30 12 1 9 4
M  V30 13 1 10 8
M  V30 14 2 11 10
M  V30 15 1 11 12
M  V30 16 2 12 13
M  V30 17 1 13 7
M  V30 18 1 14 12
M  V30 19 1 15 9
M  V30 20 1 16 11
M  V30 21 1 18 5
M  V30 22 1 22 21
M  V30 23 1 23 24
M  V30 24 2 23 22
M  V30 25 1 24 25
M  V30 26 2 25 21
M  V30 27 1 26 22
M  V30 28 2 26 30
M  V30 29 1 27 28
M  V30 30 1 27 26
M  V30 31 2 28 29
M  V30 32 1 29 30
M  V30 33 1 29 32
M  V30 34 1 31 23
M  V30 35 2 34 33
M  V30 36 2 35 36
M  V30 37 1 35 34
M  V30 38 1 36 37
M  V30 39 1 37 33
M  V30 40 1 38 35
M  V30 41 2 39 38
M  V30 42 1 39 40
M  V30 43 2 40 41
M  V30 44 1 41 34
M  V30 45 1 42 40
M  V30 46 1 43 39
M  V30 47 1 13 28
M  V30 48 1 25 41
M  V30 49 1 10 44
M  V30 50 1 38 45
M  V30 END BOND
M  V30 END CTAB
M  END

$$$$
