
     RDKit          3D

  0  0  0  0  0  0  0  0  0  0999 V3000
M  V30 BEGIN CTAB
M  V30 COUNTS 50 56 0 0 0
M  V30 BEGIN ATOM
M  V30 1 C -4.6392 3.2304 1.2654 0
M  V30 2 C -3.8426 2.2393 0.7362 0
M  V30 3 C -4.3755 0.9990 0.3975 0
M  V30 4 C -5.7229 0.8273 0.6199 0
M  V30 5 C -6.5367 1.8286 1.1564 0
M  V30 6 C -5.9837 3.0448 1.4821 0
M  V30 7 N -3.6124 0.0228 -0.1191 0
M  V30 8 C -4.1990 -1.1461 -0.4205 0
M  V30 9 C -5.5508 -1.3420 -0.2061 0
M  V30 10 N -6.3058 -0.3599 0.3111 0
M  V30 11 C -6.1245 -2.5671 -0.5323 0
M  V30 12 C -5.3184 -3.5531 -1.0631 0
M  V30 13 C -3.9669 -3.3421 -1.2719 0
M  V30 14 C -3.4180 -2.1356 -0.9472 0
M  V30 15 H -3.3680 -4.1378 -1.6894 0
M  V30 16 H -5.7474 -4.5170 -1.3245 0
M  V30 17 H -7.1764 -2.7641 -0.3816 0
M  V30 18 H -6.6073 3.8195 1.8959 0
M  V30 19 H -2.7697 2.3967 0.5667 0
M  V30 20 H -4.1431 4.1819 1.5068 0
M  V30 21 S 1.2734 -0.1664 1.7699 0
M  V30 22 C 1.2973 -0.8031 0.1903 0
M  V30 23 C 2.6142 -0.7021 -0.1653 0
M  V30 24 C 3.4583 -0.1771 0.7406 0
M  V30 25 C 2.9252 0.2103 1.9399 0
M  V30 26 C 0.1924 -1.3414 -0.6288 0
M  V30 27 C -1.1235 -1.4441 -0.2777 0
M  V30 28 C -1.9580 -1.9695 -1.1894 0
M  V30 29 C -1.4244 -2.3563 -2.3871 0
M  V30 30 S 0.2331 -1.9716 -2.2002 0
M  V30 31 H -1.4527 -1.0974 0.7330 0
M  V30 32 H 2.9225 -1.0560 -1.1786 0
M  V30 33 H -1.9534 -2.8046 -3.2488 0
M  V30 34 H 3.4765 0.6564 2.7901 0
M  V30 35 C 5.5772 3.3032 1.5583 0
M  V30 36 N 4.9167 2.1755 1.2867 0
M  V30 37 C 5.5867 1.1501 0.7516 0
M  V30 38 C 6.9431 1.2619 0.4855 0
M  V30 39 N 7.6173 2.3935 0.7554 0
M  V30 40 C 6.9375 3.4217 1.2939 0
M  V30 41 C 7.6061 0.1875 -0.0681 0
M  V30 42 C 6.9718 -1.0038 -0.3710 0
M  V30 43 C 5.6277 -1.0658 -0.0890 0
M  V30 44 C 4.9212 -0.0212 0.4633 0
M  V30 45 H 5.1307 -2.0095 -0.3302 0
M  V30 46 H 7.5048 -1.8513 -0.8100 0
M  V30 47 H 7.4676 4.3502 1.5206 0
M  V30 48 H 5.0370 4.1283 1.9892 0
M  V30 49 H -7.5981 1.6607 1.3197 0
M  V30 50 H 8.6804 0.2162 -0.3013 0
M  V30 END ATOM
M  V30 BEGIN BOND
M  V30 0 2 1 6
M  V30 1 2 2 3
M  V30 2 1 2 1
M  V30 3 1 3 4
M  V30 4 1 4 10
M  V30 5 2 4 5
M  V30 6 1 6 18
M  V30 7 1 6 5
M  V30 8 2 7 8
M  V30 9 1 7 3
M  V30 10 1 8 9
M  V30 11 1 9 11
M  V30 12 2 9 10
M  V30 13 1 11 17
M  V30 14 1 12 16
M  V30 15 2 12 11
M  V30 16 1 13 12
M  V30 17 2 14 13
M  V30 18 1 14 8
M  V30 19 1 15 13
M  V30 20 1 19 2
M  V30 21 1 20 1
M  V30 22 1 21 22
M  V30 23 1 21 25
M  V30 24 2 22 23
M  V30 25 1 23 32
M  V30 26 1 24 23
M  V30 27 2 25 24
M  V30 28 1 26 22
M  V30 29 2 26 27
M  V30 30 1 27 31
M  V30 31 1 28 27
M  V30 32 2 29 28
M  V30 33 1 30 29
M  V30 34 1 30 26
M  V30 35 1 33 29
M  V30 36 1 34 25
M  V30 37 1 35 48
M  V30 38 2 35 40
M  V30 39 1 36 35
M  V30 40 2 37 36
M  V30 41 1 37 38
M  V30 42 2 38 39
M  V30 43 1 39 40
M  V30 44 1 40 47
M  V30 45 1 41 38
M  V30 46 2 42 41
M  V30 47 2 43 44
M  V30 48 1 43 42
M  V30 49 1 44 37
M  V30 50 1 45 43
M  V30 51 1 46 42
M  V30 52 1 14 28
M  V30 53 1 24 44
M  V30 54 1 5 49
M  V30 55 1 41 50
M  V30 END BOND
M  V30 END CTAB
M  END

$$$$
