   49
Geometry Step: 1139
    C     -4.48032161     -1.47795817     -2.49251453      4.11223608
    C     -4.17427920     -0.91408109     -1.25649367      4.08576287
    C     -5.17823705     -0.22354574     -0.55241431      4.03479435
    C     -6.48430900     -0.16164430     -1.11437882      3.86492803
    C     -6.79292670     -0.72263981     -2.36313978      4.16183995
    C     -5.76903878     -1.37482650     -3.04564937      4.06781280
    C     -5.25074506      0.44718533      0.73454549      4.05363421
    C     -6.60928729      0.84400137      0.89928397      3.86486538
    N     -7.32538303      0.49265514     -0.23068386      5.17475518
    C     -7.08188908      1.46818482      2.06372109      4.16186082
    C     -6.16699582      1.68293780      3.09247724      4.07075372
    C     -4.82078683      1.31738667      2.95202485      4.13011322
    C     -4.32905783      0.72004041      1.77750926      3.99106612
    H     -4.12725026      1.52419005      3.76216133      0.91144836
    H     -8.31688047      0.64689254     -0.36726135      0.78369978
    H     -6.49596284      2.15263530      4.01507803      0.91655984
    H     -3.17713457     -1.03010524     -0.84315098      0.91335439
    H     -7.79586358     -0.65846205     -2.77644619      0.91707725
    H     -5.97136739     -1.82280201     -4.01474925      0.92048747
    H     -3.70964033     -2.01203210     -3.04107596      0.91780722
    C      2.70640481      0.13266505     -0.00304956      3.84258426
    N      1.97361943      0.43912599     -1.08716632      5.18609135
    O      0.67886087      0.51394537     -0.67499649      6.06688879
    C      0.59604113      0.26000315      0.64183706      3.77409616
    C      1.85921500      0.00690866      1.13784712      4.26389630
    C     -0.72040792      0.29404878      1.26359941      3.88539905
    N     -0.89644788      0.04392558      2.56927504      5.17034530
    O     -2.22827939      0.16659095      2.81003310      6.05980493
    C     -2.88546132      0.46792201      1.67692734      3.76059823
    C     -1.97320578      0.57338247      0.64398508      4.26703228
    H     -2.15518289      0.85433831     -0.38243959      0.87838832
    H      2.13313638     -0.23056799      2.15577764      0.88208997
    S      5.09609749     -0.43404792      1.36987683      5.99487415
    C      6.56681453     -0.42474054      0.43372522      3.97959414
    C      6.32712781     -0.12666845     -0.90387672      4.03866585
    C      4.95680936      0.09826673     -1.19366831      4.14343539
    C      4.14919248     -0.02901435     -0.07187232      3.98552713
    C      7.98234024     -0.63387096      0.61786939      3.97635448
    C      8.62402858     -0.46643403     -0.60290959      4.03838797
    C      7.62251295     -0.12783703     -1.68131120      4.10039447
    C     10.03344515     -0.65364745     -0.52389732      4.12506301
    C     10.44546288     -0.96061171      0.75373472      4.11893063
    S      9.10648136     -1.02656630      1.89136306      5.96989912
    H     10.71544916     -0.56785718     -1.36287267      0.90479876
    H      4.55978260      0.34342443     -2.17251652      0.89494681
    H      7.82666011      0.84324853     -2.15033502      0.91264537
    H      7.61892989     -0.86557206     -2.49396420      0.91267872
    H     -8.12337675      1.76059219      2.16318059      0.91427616
    H     11.46130641     -1.14906467      1.07690103      0.89745582
