
     RDKit          3D

  0  0  0  0  0  0  0  0  0  0999 V3000
M  V30 BEGIN CTAB
M  V30 COUNTS 49 56 0 0 0
M  V30 BEGIN ATOM
M  V30 1 C -4.5763 -1.6354 -2.3024 0
M  V30 2 C -4.3047 -1.0032 -1.0937 0
M  V30 3 C -5.2744 -0.2980 -0.4691 0
M  V30 4 C -6.5628 -0.1926 -1.0135 0
M  V30 5 C -6.8154 -0.8234 -2.2087 0
M  V30 6 C -5.8300 -1.5357 -2.8437 0
M  V30 7 C -5.2815 0.3898 0.7481 0
M  V30 8 C -6.5868 0.8695 0.8835 0
M  V30 9 N -7.3178 0.5090 -0.1782 0
M  V30 10 C -6.9342 1.5528 2.0273 0
M  V30 11 C -6.0128 1.7572 3.0102 0
M  V30 12 C -4.7385 1.2898 2.8651 0
M  V30 13 C -4.3418 0.5848 1.6998 0
M  V30 14 H -3.9938 1.4367 3.6254 0
M  V30 15 H -8.3290 0.7361 -0.3414 0
M  V30 16 H -6.3312 2.2977 3.8961 0
M  V30 17 H -3.3298 -1.1702 -0.7152 0
M  V30 18 H -7.8217 -0.7203 -2.6031 0
M  V30 19 H -6.0521 -2.0153 -3.7723 0
M  V30 20 H -3.7952 -2.2033 -2.8096 0
M  V30 21 C 2.6508 0.3011 -0.1928 0
M  V30 22 N 1.9758 0.8003 -1.2127 0
M  V30 23 O 0.7039 0.8677 -0.9185 0
M  V30 24 C 0.4989 0.4113 0.3145 0
M  V30 25 C 1.7390 0.0398 0.8037 0
M  V30 26 C -0.7676 0.3198 1.0097 0
M  V30 27 N -0.9423 -0.1432 2.2486 0
M  V30 28 O -2.1628 -0.1070 2.6019 0
M  V30 29 C -2.9043 0.3952 1.5966 0
M  V30 30 C -2.0279 0.6687 0.5854 0
M  V30 31 H -2.2789 1.1128 -0.3968 0
M  V30 32 H 1.9158 -0.3710 1.7814 0
M  V30 33 S 4.9954 -0.5831 1.1931 0
M  V30 34 C 6.5601 -0.5325 0.4927 0
M  V30 35 C 6.3336 -0.0169 -0.7327 0
M  V30 36 C 5.0577 0.2940 -1.0547 0
M  V30 37 C 4.1000 0.0589 -0.1082 0
M  V30 38 C 7.9869 -0.8129 0.6821 0
M  V30 39 C 8.6839 -0.4744 -0.4313 0
M  V30 40 C 7.6835 0.0547 -1.4078 0
M  V30 41 C 10.0192 -0.6760 -0.4084 0
M  V30 42 C 10.5526 -1.2058 0.7407 0
M  V30 43 S 9.1729 -1.4001 1.7381 0
M  V30 44 H 10.7314 -0.4493 -1.2437 0
M  V30 45 H 4.7425 0.7248 -2.0325 0
M  V30 46 H 7.9184 1.0770 -1.7256 0
M  V30 47 H 7.6425 -0.6533 -2.2790 0
M  V30 48 H -7.9642 1.9140 2.1026 0
M  V30 49 H 11.6130 -1.4407 0.9489 0
M  V30 END ATOM
M  V30 BEGIN BOND
M  V30 0 1 1 20
M  V30 1 1 2 17
M  V30 2 2 2 1
M  V30 3 1 3 2
M  V30 4 2 4 3
M  V30 5 1 4 5
M  V30 6 2 5 6
M  V30 7 1 6 1
M  V30 8 1 6 19
M  V30 9 1 7 3
M  V30 10 1 8 9
M  V30 11 2 8 7
M  V30 12 1 9 4
M  V30 13 1 10 8
M  V30 14 2 11 10
M  V30 15 1 11 12
M  V30 16 2 12 13
M  V30 17 1 13 7
M  V30 18 1 14 12
M  V30 19 1 15 9
M  V30 20 1 16 11
M  V30 21 1 18 5
M  V30 22 2 21 22
M  V30 23 1 23 22
M  V30 24 1 24 23
M  V30 25 1 25 21
M  V30 26 2 25 24
M  V30 27 1 26 24
M  V30 28 1 26 30
M  V30 29 2 27 26
M  V30 30 1 28 27
M  V30 31 1 28 29
M  V30 32 2 29 30
M  V30 33 1 30 31
M  V30 34 1 32 25
M  V30 35 1 33 37
M  V30 36 2 34 35
M  V30 37 1 34 33
M  V30 38 1 35 36
M  V30 39 1 36 45
M  V30 40 2 36 37
M  V30 41 1 38 34
M  V30 42 2 39 38
M  V30 43 1 39 40
M  V30 44 1 40 35
M  V30 45 1 40 46
M  V30 46 1 40 47
M  V30 47 1 41 39
M  V30 48 2 42 41
M  V30 49 1 42 43
M  V30 50 1 43 38
M  V30 51 1 44 41
M  V30 52 1 13 29
M  V30 53 1 21 37
M  V30 54 1 10 48
M  V30 55 1 42 49
M  V30 END BOND
M  V30 END CTAB
M  END

$$$$
