
 OpenBabel08201816173D

 15 16  0  0  0  0  0  0  0  0999 V2000
    2.7667    0.7938    0.6693 C   0  0  0  0  0  0  0  0  0  0  0  0
    1.5753    0.7938    0.0178 N   0  0  0  0  0  0  0  0  0  0  0  0
    0.4740    0.7938    0.7857 C   0  0  0  0  0  0  0  0  0  0  0  0
    0.5140    0.7938    2.1681 C   0  0  0  0  0  0  0  0  0  0  0  0
    1.7443    0.7938    2.8279 C   0  0  0  0  0  0  0  0  0  0  0  0
    2.9322    0.7938    2.0605 C   0  0  0  0  0  0  0  0  0  0  0  0
    1.8056    0.7938    4.1850 N   0  0  0  0  0  0  0  0  0  0  0  0
    3.0242    0.7938    4.7634 C   0  0  0  0  0  0  0  0  0  0  0  0
    4.1783    0.7938    4.0200 C   0  0  0  0  0  0  0  0  0  0  0  0
    4.1528    0.7938    2.6727 N   0  0  0  0  0  0  0  0  0  0  0  0
   -1.1309    0.7938    3.1160 Br  0  0  0  0  0  0  0  0  0  0  0  0
    4.3117    0.7938   -0.4551 Br  0  0  0  0  0  0  0  0  0  0  0  0
   -0.4664    0.7938    0.2407 H   0  0  0  0  0  0  0  0  0  0  0  0
    3.0401    0.7938    5.8471 H   0  0  0  0  0  0  0  0  0  0  0  0
    5.1587    0.7938    4.4821 H   0  0  0  0  0  0  0  0  0  0  0  0
  1  6  1  0  0  0  0
  2  1  2  0  0  0  0
  2  3  1  0  0  0  0
  3  4  2  0  0  0  0
  4 11  1  0  0  0  0
  4  5  1  0  0  0  0
  5  7  2  0  0  0  0
  6 10  2  0  0  0  0
  6  5  1  0  0  0  0
  7  8  1  0  0  0  0
  8 14  1  0  0  0  0
  9 15  1  0  0  0  0
  9  8  2  0  0  0  0
 10  9  1  0  0  0  0
 12  1  1  0  0  0  0
 13  3  1  0  0  0  0
M  END
