
     RDKit          3D

  0  0  0  0  0  0  0  0  0  0999 V3000
M  V30 BEGIN CTAB
M  V30 COUNTS 47 53 0 0 0
M  V30 BEGIN ATOM
M  V30 1 C 4.6915 1.5950 0.1180 0
M  V30 2 C 3.8771 0.5040 -0.2112 0
M  V30 3 C 4.2727 -0.4562 -1.0795 0
M  V30 4 C 5.5463 -0.3380 -1.6530 0
M  V30 5 C 6.3414 0.7333 -1.3274 0
M  V30 6 C 5.9327 1.6895 -0.4594 0
M  V30 7 C 3.6694 -1.6201 -1.5224 0
M  V30 8 C 4.6286 -2.2008 -2.3724 0
M  V30 9 N 5.7027 -1.4138 -2.4167 0
M  V30 10 C 4.3819 -3.4270 -2.9625 0
M  V30 11 C 3.2039 -4.0732 -2.7192 0
M  V30 12 C 2.2956 -3.4907 -1.9020 0
M  V30 13 C 2.4937 -2.2332 -1.2727 0
M  V30 14 H 1.3452 -3.9552 -1.6720 0
M  V30 15 H 6.5674 -1.6043 -2.9766 0
M  V30 16 H 3.0280 -5.0293 -3.1837 0
M  V30 17 H 2.9639 0.4822 0.3084 0
M  V30 18 H 7.3138 0.7641 -1.8082 0
M  V30 19 H 6.5785 2.5338 -0.2145 0
M  V30 20 H 4.3509 2.3480 0.8123 0
M  V30 21 N -2.9764 -0.2295 1.4727 0
M  V30 22 C -2.1980 -1.2580 1.4091 0
M  V30 23 C -2.5778 -2.3900 2.0971 0
M  V30 24 S -4.0533 -1.8762 2.7948 0
M  V30 25 C -4.0874 -0.2882 2.1773 0
M  V30 26 C -0.9310 -1.2647 0.6353 0
M  V30 27 S 0.2132 -2.4913 0.4271 0
M  V30 28 C 1.3477 -1.6288 -0.6136 0
M  V30 29 C 0.6965 -0.4376 -0.6950 0
M  V30 30 N -0.4264 -0.2796 -0.0702 0
M  V30 31 H -2.0429 -3.3554 2.1574 0
M  V30 32 H 1.1132 0.3895 -1.3178 0
M  V30 33 C -5.1236 0.7245 2.4050 0
M  V30 34 N -6.1916 0.4423 3.1731 0
M  V30 35 C -7.1309 1.3822 3.3705 0
M  V30 36 C -7.0660 2.6468 2.8217 0
M  V30 37 C -5.9802 2.9589 2.0306 0
M  V30 38 C -5.0379 1.9803 1.8470 0
M  V30 39 N -5.8438 4.1711 1.4589 0
M  V30 40 C -4.7863 4.4820 0.6854 0
M  V30 41 C -3.8316 3.5073 0.4927 0
M  V30 42 N -3.9786 2.2819 1.0762 0
M  V30 43 H -7.9937 1.1211 4.0044 0
M  V30 44 H -4.6535 5.4484 0.2149 0
M  V30 45 H -2.9416 3.6510 -0.1107 0
M  V30 46 H 5.1482 -3.8591 -3.6216 0
M  V30 47 H -7.8516 3.3630 3.0149 0
M  V30 END ATOM
M  V30 BEGIN BOND
M  V30 0 1 1 20
M  V30 1 1 2 17
M  V30 2 2 2 1
M  V30 3 1 3 2
M  V30 4 2 4 3
M  V30 5 1 4 5
M  V30 6 2 5 6
M  V30 7 1 6 1
M  V30 8 1 6 19
M  V30 9 1 7 3
M  V30 10 1 8 9
M  V30 11 2 8 7
M  V30 12 1 9 4
M  V30 13 1 10 8
M  V30 14 2 11 10
M  V30 15 1 11 12
M  V30 16 2 12 13
M  V30 17 1 13 7
M  V30 18 1 14 12
M  V30 19 1 15 9
M  V30 20 1 16 11
M  V30 21 1 18 5
M  V30 22 1 22 21
M  V30 23 1 23 24
M  V30 24 2 23 22
M  V30 25 1 24 25
M  V30 26 2 25 21
M  V30 27 1 26 22
M  V30 28 2 26 30
M  V30 29 1 27 28
M  V30 30 1 27 26
M  V30 31 2 28 29
M  V30 32 1 29 30
M  V30 33 1 29 32
M  V30 34 1 31 23
M  V30 35 1 33 38
M  V30 36 2 34 33
M  V30 37 1 34 35
M  V30 38 2 35 36
M  V30 39 1 36 37
M  V30 40 2 37 39
M  V30 41 2 38 42
M  V30 42 1 38 37
M  V30 43 1 39 40
M  V30 44 1 40 44
M  V30 45 1 41 45
M  V30 46 2 41 40
M  V30 47 1 42 41
M  V30 48 1 43 35
M  V30 49 1 13 28
M  V30 50 1 25 33
M  V30 51 1 10 46
M  V30 52 1 36 47
M  V30 END BOND
M  V30 END CTAB
M  END

$$$$
