67

C          9.96940        1.97130        2.76230
C          8.79900        1.87910        2.04640
C          8.60180        0.83060        1.16230
C          9.60720       -0.09140        1.03720
C         10.77790        0.01230        1.76180
C         10.97200        1.03920        2.62820
N          7.44140        0.74080        0.45390
C          7.26410       -0.27320       -0.39340
C          8.28010       -1.21120       -0.52450
N          9.41440       -1.12570        0.16620
C          8.09330       -2.25330       -1.39650
C          6.92240       -2.37660       -2.13410
C          5.93590       -1.40490       -1.96200
C          6.10400       -0.35440       -1.09400
H          5.00920       -1.48170       -2.53020
H          6.80820       -3.20670       -2.80970
H          8.84690       -3.02140       -1.54720
H         11.87060        1.17340        3.22460
H          8.00390        2.60300        2.14130
H         10.12750        2.79930        3.46190
S          0.19870        2.40600       -0.51820
C          1.31820        1.13290       -0.64140
C          0.55710        0.02380       -0.58050
C         -0.77810        0.18620       -0.44910
C         -1.23900        1.47260       -0.38950
C          2.78120        1.26700       -0.77890
C          3.69020        0.26140       -0.86860
C          4.99280        0.62490       -0.98690
C          5.26430        1.96540       -1.00450
S          3.71680        2.67300       -0.85750
H          3.38050       -0.81590       -0.84610
H          1.05330       -0.97790       -0.64030
H          6.25820        2.44360       -1.09440
H         -2.27060        1.86400       -0.28540
C         -8.01790       -2.11900       -0.72980
C         -9.38290       -2.32930       -0.57460
C         -9.99140       -1.90850        0.58720
C         -9.20420       -1.29170        1.55010
C         -7.85270       -1.08310        1.39710
C         -7.24660       -1.50350        0.23720
C         -5.81360       -1.28450        0.07850
C         -5.22910       -0.03830        0.03890
N         -3.91110        0.06370       -0.10670
C         -3.05460       -1.01180       -0.22490
C         -3.64240       -2.22440       -0.18430
N         -5.00850       -2.32530       -0.03330
C         -1.69220       -0.99530       -0.37560
S         -1.28430       -2.64350       -0.45400
C         -2.82860       -3.32710       -0.29680
C         -6.07470        1.15460        0.15820
C         -5.85240        2.00620        1.23360
C         -6.60460        3.14830        1.41300
C         -7.57930        3.40880        0.48860
C         -7.81810        2.59300       -0.57260
C         -7.06490        1.46050       -0.74190
H         -7.25150        0.80580       -1.58960
H         -8.59700        2.79030       -1.32130
H         -8.18170        4.30680        0.61690
H         -6.38500        3.77140        2.26730
H         -5.07320        1.77880        1.95460
H         -7.31970       -0.59550        2.20080
H         -9.67140       -0.95320        2.47570
H        -11.04380       -2.03270        0.78710
H         -9.97170       -2.81680       -1.35050
H         -7.56320       -2.45530       -1.64370
H         11.54270       -0.72650        1.63920
H         -3.10290       -4.39870       -0.28800
