
 OpenBabel08201816133D

 33 36  0  0  0  0  0  0  0  0999 V2000
   -3.5332    2.4260    3.5139 C   0  0  0  0  0  0  0  0  0  0  0  0
   -4.9190    2.5059    3.6765 C   0  0  0  0  0  0  0  0  0  0  0  0
   -5.4937    2.2080    4.9086 C   0  0  0  0  0  0  0  0  0  0  0  0
   -4.6863    1.8129    5.9711 C   0  0  0  0  0  0  0  0  0  0  0  0
   -3.3013    1.7228    5.8033 C   0  0  0  0  0  0  0  0  0  0  0  0
   -2.6919    2.0520    4.5785 C   0  0  0  0  0  0  0  0  0  0  0  0
   -1.2238    1.9838    4.3856 C   0  0  0  0  0  0  0  0  0  0  0  0
   -0.2671    2.5359    5.2966 C   0  0  0  0  0  0  0  0  0  0  0  0
    1.0895    2.3664    5.1690 N   0  0  0  0  0  0  0  0  0  0  0  0
    1.4219    1.6659    4.0538 C   0  0  0  0  0  0  0  0  0  0  0  0
    0.4634    1.1617    3.1075 C   0  0  0  0  0  0  0  0  0  0  0  0
   -0.8814    1.3018    3.2446 N   0  0  0  0  0  0  0  0  0  0  0  0
    2.7065    1.3497    3.6860 C   0  0  0  0  0  0  0  0  0  0  0  0
    2.7740    0.4959    2.2132 S   0  0  0  0  0  0  0  0  0  0  0  0
    1.0774    0.5262    2.0576 C   0  0  0  0  0  0  0  0  0  0  0  0
   -0.6192    3.3801    6.4629 C   0  0  0  0  0  0  0  0  0  0  0  0
   -0.0365    3.1356    7.7206 C   0  0  0  0  0  0  0  0  0  0  0  0
   -0.3615    3.9133    8.8354 C   0  0  0  0  0  0  0  0  0  0  0  0
   -1.2743    4.9568    8.7141 C   0  0  0  0  0  0  0  0  0  0  0  0
   -1.8472    5.2344    7.4764 C   0  0  0  0  0  0  0  0  0  0  0  0
   -1.5123    4.4624    6.3601 C   0  0  0  0  0  0  0  0  0  0  0  0
    4.2453    1.7871    4.6654 Br  0  0  0  0  0  0  0  0  0  0  0  0
    0.1893   -0.2373    0.5923 Br  0  0  0  0  0  0  0  0  0  0  0  0
   -1.9651    4.7181    5.4038 H   0  0  0  0  0  0  0  0  0  0  0  0
   -2.5536    6.0545    7.3752 H   0  0  0  0  0  0  0  0  0  0  0  0
   -1.5313    5.5600    9.5809 H   0  0  0  0  0  0  0  0  0  0  0  0
    0.1027    3.7045    9.7958 H   0  0  0  0  0  0  0  0  0  0  0  0
    0.6864    2.3290    7.8358 H   0  0  0  0  0  0  0  0  0  0  0  0
   -2.7014    1.3933    6.6497 H   0  0  0  0  0  0  0  0  0  0  0  0
   -5.1319    1.5703    6.9326 H   0  0  0  0  0  0  0  0  0  0  0  0
   -6.5708    2.2735    5.0379 H   0  0  0  0  0  0  0  0  0  0  0  0
   -5.5471    2.7969    2.8385 H   0  0  0  0  0  0  0  0  0  0  0  0
   -3.1049    2.6557    2.5391 H   0  0  0  0  0  0  0  0  0  0  0  0
  1  2  2  0  0  0  0
  1  6  1  0  0  0  0
  2  3  1  0  0  0  0
  3 31  1  0  0  0  0
  3  4  2  0  0  0  0
  4 30  1  0  0  0  0
  5  4  1  0  0  0  0
  5 29  1  0  0  0  0
  6  5  2  0  0  0  0
  7  6  1  0  0  0  0
  7  8  1  0  0  0  0
  8 16  1  0  0  0  0
  9  8  2  0  0  0  0
 10  9  1  0  0  0  0
 11 12  1  0  0  0  0
 11 10  1  0  0  0  0
 12  7  2  0  0  0  0
 13 10  2  0  0  0  0
 13 22  1  0  0  0  0
 14 13  1  0  0  0  0
 15 14  1  0  0  0  0
 15 11  2  0  0  0  0
 16 17  1  0  0  0  0
 17 28  1  0  0  0  0
 17 18  2  0  0  0  0
 18 27  1  0  0  0  0
 19 18  1  0  0  0  0
 19 26  1  0  0  0  0
 20 19  2  0  0  0  0
 21 16  2  0  0  0  0
 21 20  1  0  0  0  0
 23 15  1  0  0  0  0
 24 21  1  0  0  0  0
 25 20  1  0  0  0  0
 32  2  1  0  0  0  0
 33  1  1  0  0  0  0
M  END
