   43
Geometry Step: 1239
    C     -4.84358036      2.73949080      1.20432607      4.11419569
    C     -4.03952377      1.66098924      0.84558457      4.07973177
    C     -4.64535475      0.48623005      0.35981078      4.03099663
    C     -6.06360134      0.45435333      0.24508812      3.86713656
    C     -6.87669006      1.53746972      0.61252559      4.16482627
    C     -6.24419945      2.68019527      1.09507120      4.06655767
    C     -4.16168057     -0.79679587     -0.12586372      4.04142234
    C     -5.32014625     -1.52747794     -0.52650099      3.86846113
    N     -6.44753108     -0.76732208     -0.27973540      5.17447402
    C     -5.26079521     -2.80657209     -1.09871548      4.15891060
    C     -3.99852357     -3.36465361     -1.29024440      4.07322011
    C     -2.84248316     -2.67242883     -0.90971548      4.13535175
    C     -2.88593038     -1.39877166     -0.30961696      3.97795076
    H     -1.87531511     -3.14694057     -1.05973322      0.91590626
    H     -7.39891067     -1.04778910     -0.48373222      0.78411616
    H     -3.90587339     -4.35042245     -1.73680697      0.91679160
    H     -2.96032407      1.73015247      0.94503388      0.89616320
    H     -7.95808309      1.48588621      0.51850870      0.91804755
    H     -6.84073577      3.53954169      1.38957051      0.92153065
    H     -4.38081997      3.64750223      1.58090218      0.91840881
    S      3.21765689     -0.58916412     -0.61511058      6.07065645
    C      4.50478220      0.34449260      0.19539438      3.81569181
    N      4.03917123      1.11616993      1.16895546      5.14955039
    N      2.69239546      1.03782399      1.34670391      5.15571028
    C      2.09582753      0.19891241      0.50785142      3.82871939
    C      0.67238393     -0.06357013      0.48840647      3.83846759
    N     -0.20204496      0.49629592      1.31376147      5.15569529
    N     -1.48728573      0.08977985      1.09742205      5.18319542
    C     -1.62505533     -0.77832045      0.10660589      3.80005912
    S     -0.06872885     -1.18762120     -0.66295582      6.06684151
    C      5.90821469      0.25495440     -0.18557145      4.00493801
    C      6.32823451     -0.57154095     -1.21197952      4.10697205
    C      7.69633469     -0.67716391     -1.60431096      4.07840693
    C      8.68229195      0.04061918     -0.98131361      4.11858901
    C      8.33182236      0.92599096      0.09836791      3.81519459
    C      6.92027034      1.04288438      0.51217554      3.83368063
    N      9.22736154      1.65262036      0.74930913      5.25447410
    S      8.27876201      2.61918001      2.04037505      5.84338895
    N      6.64203444      1.86552936      1.50580223      5.22425198
    H      5.59173464     -1.16843733     -1.74662180      0.90863792
    H      7.94743798     -1.34909060     -2.42079474      0.91044059
    H     -6.16382484     -3.33541267     -1.39021139      0.91443000
    H      9.72052532     -0.04766882     -1.28831779      0.89780846
