43

C         -4.65170        2.76220        0.79010
C         -3.88500        1.60910        0.61190
C         -4.54540        0.51140        0.13320
C         -5.91120        0.54050       -0.16590
C         -6.62640        1.72420        0.03380
C         -5.97140        2.83650        0.51760
C         -4.07280       -0.76080       -0.18190
C         -5.19930       -1.44490       -0.67280
N         -6.24950       -0.64700       -0.64310
C         -5.12020       -2.75220       -1.13950
C         -3.89690       -3.37290       -1.10760
C         -2.81690       -2.70670       -0.62630
C         -2.87700       -1.39720       -0.15470
H         -1.84280       -3.17610       -0.58330
H         -7.23670       -0.88870       -0.95300
H         -3.83410       -4.41310       -1.47610
H         -2.83660        1.64430        0.80390
H         -7.69030        1.71740       -0.20000
H         -6.56550        3.74250        0.66490
H         -4.11550        3.63140        1.16490
S          3.03650       -0.13420        0.10970
C          4.58250        0.08060        0.67020
N          4.37730        0.08060        1.97420
N          3.21960       -0.06040        2.31920
C          2.11300       -0.20590        1.89640
C          0.73700       -0.38700        1.37050
N         -0.35240       -0.00780        2.12420
N         -1.49140       -0.25280        1.68250
C         -1.70520       -0.85420        0.54390
S         -0.05600       -1.08220        0.06560
C          5.86190        0.22020       -0.08560
C          5.86430       -0.20980       -1.37710
C          7.00110       -0.03280       -2.15870
C          8.07130        0.57610       -1.56720
C          8.07400        1.02610       -0.22130
C          6.96140        0.84410        0.51820
N          9.09620        1.63580        0.38580
S          8.52800        1.94690        1.93400
N          6.99450        1.29060        1.77650
H          5.02750       -0.70280       -1.87740
H          7.02890       -0.36300       -3.19250
H         -6.00050       -3.28850       -1.52390
H          8.97590        0.72040       -2.18360
