
 OpenBabel08201816023D

 13 14  0  0  0  0  0  0  0  0999 V2000
    2.8302    1.0759    3.8580 C   0  0  0  0  0  0  0  0  0  0  0  0
    3.0606    0.4423    2.6234 C   0  0  0  0  0  0  0  0  0  0  0  0
    2.0430    0.2479    1.6611 C   0  0  0  0  0  0  0  0  0  0  0  0
    0.7165    0.6722    1.8591 C   0  0  0  0  0  0  0  0  0  0  0  0
    0.4186    1.3201    3.0881 C   0  0  0  0  0  0  0  0  0  0  0  0
    1.5088    1.5283    4.1191 C   0  0  0  0  0  0  0  0  0  0  0  0
   -0.7713    1.8033    3.4858 N   0  0  0  0  0  0  0  0  0  0  0  0
   -0.5480    2.4514    4.9947 S   0  0  0  0  0  0  0  0  0  0  0  0
    1.0662    2.1543    5.2235 N   0  0  0  0  0  0  0  0  0  0  0  0
   -0.5875    0.3772    0.5275 Br  0  0  0  0  0  0  0  0  0  0  0  0
    4.2397    1.2992    5.0925 Br  0  0  0  0  0  0  0  0  0  0  0  0
    4.0634    0.0825    2.3899 H   0  0  0  0  0  0  0  0  0  0  0  0
    2.3070   -0.2530    0.7289 H   0  0  0  0  0  0  0  0  0  0  0  0
  1  6  1  0  0  0  0
  1 11  1  0  0  0  0
  2  1  2  0  0  0  0
  3  4  2  0  0  0  0
  3  2  1  0  0  0  0
  4  5  1  0  0  0  0
  5  7  2  0  0  0  0
  5  6  1  0  0  0  0
  6  9  2  0  0  0  0
  7  8  1  0  0  0  0
  8  9  1  0  0  0  0
 10  4  1  0  0  0  0
 12  2  1  0  0  0  0
 13  3  1  0  0  0  0
M  END
