   48
Geometry Step: 1665
    C     -4.63139903     -1.88683150      3.76975891      4.11827560
    C     -3.72896602     -1.21133316      2.95219297      4.07740157
    C     -4.10387331     -0.89211662      1.63380794      4.02926129
    C     -5.39134313     -1.29465411      1.17953124      3.86669444
    C     -6.30547576     -1.96995560      2.00305722      4.16541020
    C     -5.90621714     -2.25703536      3.30584437      4.06803641
    C     -3.45094501     -0.24261503      0.50815203      4.03674263
    C     -4.37445387     -0.31487649     -0.57638697      3.87132874
    N     -5.53762530     -0.92835065     -0.14659846      5.17633841
    C     -4.08192224      0.16147537     -1.86243886      4.15465778
    C     -2.81721042      0.70719947     -2.07237096      4.07694378
    C     -1.88899314      0.78981753     -1.02648891      4.11474607
    C     -2.17928087      0.34537658      0.27564188      4.01398092
    H     -0.91406523      1.23146122     -1.21387008      0.90501448
    H     -6.34748180     -1.11824286     -0.72400586      0.78489091
    H     -2.54658366      1.07761233     -3.05716005      0.91746640
    H     -2.74997745     -0.93756151      3.33326128      0.90386861
    H     -7.28472430     -2.26326520      1.63419337      0.91859301
    H     -6.58677488     -2.77997982      3.97257003      0.92244665
    H     -4.34718971     -2.13459836      4.78891105      0.92107729
    C      4.10276021      0.70870337     -0.23592221      3.59988222
    N      2.79723246      0.67706235      0.12739536      5.37740938
    C      2.51614497      0.86888429      1.43615933      3.65943271
    N      3.46710375      1.08721204      2.37933585      5.35970907
    C      4.73915329      1.10223724      1.93674584      3.69298666
    N      5.10710663      0.92082393      0.65532772      5.38246833
    C      1.08690820      0.84083414      1.85720927      3.65984875
    N      0.15134589      0.59551720      0.91336301      5.38155666
    C     -1.14549297      0.56735677      1.31430919      3.60137811
    N     -1.51321293      0.79762878      2.60213976      5.38177561
    C     -0.51883280      1.04039499      3.47611339      3.69602747
    N      0.79017043      1.06696397      3.16247469      5.36214931
    H     -0.79755575      1.23238616      4.52332179      0.95549873
    H      5.53509146      1.27587514      2.67652284      0.95504718
    C      5.09183771      0.11781444     -4.38133673      4.34950604
    C      6.10456613      0.33568932     -3.42774221      3.64641120
    C      5.78915269      0.52890275     -2.07542338      4.22180341
    C      4.44524161      0.50464415     -1.66335168      3.99027093
    C      3.42302465      0.28791027     -2.60402889      4.22081498
    C      3.75050264      0.09639806     -3.95365892      3.64668843
    O      7.40579272      0.36147318     -3.81050730      6.46261820
    O      2.75370329     -0.11072897     -4.85033100      6.46253850
    H      2.38652731      0.26848801     -2.28520899      0.87771512
    H      7.48387962      0.21567520     -4.76195338      0.64908561
    H      3.11403927     -0.22941300     -5.73839731      0.64928611
    H      6.57776210      0.69608136     -1.35002123      0.88061897
    H     -4.81063436      0.09507449     -2.66582211      0.91681006
    H      5.34138404     -0.03151585     -5.43001483      0.91748704
