
     RDKit          3D

  0  0  0  0  0  0  0  0  0  0999 V3000
M  V30 BEGIN CTAB
M  V30 COUNTS 42 48 0 0 0
M  V30 BEGIN ATOM
M  V30 1 C -3.4239 0.4013 -0.8023 0
M  V30 2 C -2.6421 -0.5631 -0.2066 0
M  V30 3 C -3.2006 -1.5428 0.5788 0
M  V30 4 C -4.5814 -1.5499 0.7584 0
M  V30 5 C -5.3578 -0.5685 0.1495 0
M  V30 6 C -4.7784 0.4070 -0.6296 0
M  V30 7 C -2.7066 -2.6152 1.2654 0
M  V30 8 C -3.8303 -3.2581 1.8386 0
M  V30 9 N -4.9403 -2.5853 1.5135 0
M  V30 10 C -3.6632 -4.4049 2.5823 0
M  V30 11 C -2.4235 -4.9076 2.7593 0
M  V30 12 C -1.3233 -4.3159 2.2263 0
M  V30 13 C -1.4772 -3.1131 1.4478 0
M  V30 14 H -0.3299 -4.6753 2.3418 0
M  V30 15 H -5.9046 -2.8695 1.8403 0
M  V30 16 H -2.3029 -5.8110 3.3497 0
M  V30 17 H -1.6076 -0.5226 -0.4533 0
M  V30 18 H -6.4291 -0.6363 0.3316 0
M  V30 19 H -5.4264 1.1636 -1.0753 0
M  V30 20 H -2.9674 1.1874 -1.4272 0
M  V30 21 S 2.4181 1.1534 -0.6326 0
M  V30 22 C 3.3017 -0.4752 0.1746 0
M  V30 23 N 4.2321 0.0984 -0.0402 0
M  V30 24 N 4.7587 1.1348 -0.4954 0
M  V30 25 C 3.8496 1.9860 -0.9406 0
M  V30 26 C 2.0104 -1.2362 0.4628 0
M  V30 27 N 2.0353 -2.5741 0.7725 0
M  V30 28 N 0.9830 -3.1519 1.0672 0
M  V30 29 C -0.2174 -2.4505 1.0882 0
M  V30 30 S 0.4050 -0.9634 0.6481 0
M  V30 31 N 6.3960 3.4539 -1.3833 0
M  V30 32 C 5.1979 3.9748 -1.6887 0
M  V30 33 C 5.2193 5.2465 -2.2237 0
M  V30 34 N 6.4155 5.7844 -2.3627 0
M  V30 35 S 7.4905 4.6542 -1.8124 0
M  V30 36 C 3.9821 5.8163 -2.5737 0
M  V30 37 C 2.8083 5.1407 -2.3947 0
M  V30 38 N 2.7968 3.9216 -1.8811 0
M  V30 39 C 3.9835 3.3489 -1.5327 0
M  V30 40 H 1.8307 5.5820 -2.6723 0
M  V30 41 H -4.5170 -4.9180 3.0281 0
M  V30 42 H 3.9362 6.8016 -2.9963 0
M  V30 END ATOM
M  V30 BEGIN BOND
M  V30 0 1 1 20
M  V30 1 1 2 17
M  V30 2 2 2 1
M  V30 3 1 3 2
M  V30 4 2 4 3
M  V30 5 1 4 5
M  V30 6 2 5 6
M  V30 7 1 6 1
M  V30 8 1 6 19
M  V30 9 1 7 3
M  V30 10 1 8 9
M  V30 11 2 8 7
M  V30 12 1 9 4
M  V30 13 1 10 8
M  V30 14 2 11 10
M  V30 15 1 11 12
M  V30 16 2 12 13
M  V30 17 1 13 7
M  V30 18 1 14 12
M  V30 19 1 15 9
M  V30 20 1 16 11
M  V30 21 1 18 5
M  V30 22 1 21 25
M  V30 23 1 21 22
M  V30 24 2 22 23
M  V30 25 1 24 23
M  V30 26 2 25 24
M  V30 27 1 26 22
M  V30 28 1 26 30
M  V30 29 1 27 28
M  V30 30 2 27 26
M  V30 31 2 28 29
M  V30 32 1 29 30
M  V30 33 2 32 31
M  V30 34 2 33 34
M  V30 35 1 33 32
M  V30 36 1 34 35
M  V30 37 1 35 31
M  V30 38 1 36 33
M  V30 39 2 37 36
M  V30 40 1 37 38
M  V30 41 2 38 39
M  V30 42 1 39 32
M  V30 43 1 40 37
M  V30 44 1 13 29
M  V30 45 1 25 39
M  V30 46 1 10 41
M  V30 47 1 36 42
M  V30 END BOND
M  V30 END CTAB
M  END

$$$$
