   88
Geometry Step: 7525
    C      8.43213253      3.61697595     -1.00370507      4.11916362
    C      7.74336729      2.52866148     -0.47391710      4.07735241
    C      8.47157992      1.42728023      0.01262084      4.02854749
    C      9.89176260      1.46117828     -0.07628495      3.86694194
    C     10.58899672      2.55904040     -0.60391168      4.16593994
    C      9.83688042      3.63720772     -1.06355978      4.06890182
    C      8.12253787      0.13975722      0.59216625      4.03733755
    C      9.35598892     -0.54626253      0.79618881      3.87142617
    N     10.40347527      0.27122832      0.40994069      5.17683626
    C      9.42901481     -1.85459407      1.29564604      4.15619107
    C      8.22752427     -2.50124709      1.57795112      4.07747119
    C      7.00068678     -1.85283793      1.38496703      4.11536960
    C      6.91325588     -0.53074963      0.91506324      4.01216133
    H      6.07864528     -2.37548326      1.62409940      0.90451196
    H     11.38385310      0.01946006      0.43750997      0.78522085
    H      8.23988741     -3.51959707      1.95647285      0.91854475
    H      6.65830983      2.53613173     -0.43942052      0.90347944
    H     11.67444188      2.56319923     -0.65751648      0.91899966
    H     10.34190633      4.50481819     -1.48003610      0.92306325
    H      7.87469776      4.47070053     -1.37974198      0.92189480
    C     -0.17779245     -1.35946515      0.05699657      3.59343800
    N      0.88296386     -0.53684867      0.29408775      5.39324467
    C      2.11115996     -1.09234347      0.31684156      3.65975634
    N      2.34233680     -2.41662507      0.11518611      5.38058163
    C      1.24568974     -3.16274107     -0.12434521      3.69346254
    N     -0.01219123     -2.69438171     -0.16152020      5.38835555
    C      3.27922986     -0.20404436      0.57761145      3.65687473
    N      4.51329282     -0.75540238      0.60626160      5.38169018
    C      5.56182995      0.07494158      0.83582296      3.60237174
    N      5.40308723      1.40655876      1.05532249      5.38641968
    C      4.14040133      1.87224699      1.01757820      3.69651142
    N      3.05089832      1.12036852      0.77770349      5.36572689
    H      3.99010360      2.94811298      1.19707043      0.95872939
    H      1.39249637     -4.24027428     -0.30170776      0.96414315
    C     -5.21247200     -1.57591056     -0.32001011      3.82792280
    C     -6.42915741     -0.89538375     -0.37953965      4.17022016
    C     -6.48190946      0.50615984     -0.29094511      4.16904499
    C     -5.31343460      1.24987413     -0.13794184      3.82295943
    C     -4.04647674      0.58655250     -0.05205195      4.03877338
    C     -3.98482207     -0.84101496     -0.16935453      4.05797857
    C     -2.82220810      1.33071955      0.07387747      3.83569365
    C     -1.60778833      0.66691826      0.10516592      4.18401962
    C     -1.51922241     -0.75256766      0.02084940      4.09990990
    C     -2.70877572     -1.50231271     -0.08066107      3.81907411
    N     -2.64953908     -2.90335061     -0.18970219      5.25116980
    C     -2.68233304     -3.71068150      0.81469654      3.74611419
    C     -2.84040657     -3.25635975      2.25157928      4.28418236
    N     -2.87221861      2.72850757      0.28959993      5.28456905
    C     -2.24225437      3.58091862     -0.44884848      3.75853353
    C     -1.45871477      3.23042902     -1.69958220      4.28973944
    N     -5.39366527      2.64951308      0.04911307      5.27804913
    C     -5.83611604      3.46128150     -0.85153572      3.75895369
    C     -5.94410464      4.93140525     -0.52958890      4.27851800
    N     -5.19821533     -2.96601441     -0.57257449      5.28425251
    C     -5.90057664     -3.81875220      0.09800413      3.76622519
    C     -6.69707141     -3.49086862      1.34790236      4.29123988
    C     -5.92624867     -5.26133685     -0.34417780      4.28007204
    C     -2.56964972     -5.19511658      0.58277418      4.27503081
    C     -2.29643533      5.04496552     -0.08679829      4.27877107
    C     -6.23353684      3.05158613     -2.25706488      4.28907570
    H     -7.34584347     -1.45859197     -0.52905742      0.91323210
    H     -0.68864100      1.23330836      0.21993701      0.89214845
    H     -2.65347599     -5.43475958     -0.47297231      0.90030028
    H     -3.34036108     -5.73516823      1.13165275      0.91926049
    H     -1.60571303     -5.55801772      0.94161720      0.90563513
    H     -3.86229812     -3.44075058      2.58674596      0.90802353
    H     -2.17527893     -3.80916917      2.91214917      0.91054076
    H     -2.63764097     -2.19314025      2.35038635      0.90074223
    H     -5.62135610     -5.92338810      0.46635605      0.91590091
    H     -5.26914462     -5.42227070     -1.19350669      0.89939206
    H     -6.93758162     -5.55391325     -0.62881225      0.90890688
    H     -6.53199311     -4.24994903      2.11139616      0.91496224
    H     -7.76568033     -3.47930623      1.13223251      0.90385518
    H     -6.42121417     -2.51944969      1.74929044      0.89868495
    H     -6.96736227      5.28246121     -0.66424810      0.91218445
    H     -5.31528171      5.51748085     -1.20041302      0.91359184
    H     -5.63842611      5.13120604      0.49305150      0.90048752
    H     -5.80720919      3.73657025     -2.98842404      0.91269293
    H     -7.31692609      3.08875358     -2.37378873      0.90669097
    H     -5.90115161      2.04194320     -2.48236860      0.89858012
    H     -2.88019061      5.20381636      0.81505801      0.90168260
    H     -1.29282977      5.43966380      0.07259584      0.91036471
    H     -2.74167679      5.62509434     -0.89580896      0.91622440
    H     -1.63954520      3.96632326     -2.48155230      0.91645418
    H     -0.38821570      3.23383832     -1.49317136      0.90041632
    H     -1.72644816      2.24476838     -2.07090903      0.89886154
    H     10.38611419     -2.34732526      1.44416543      0.91719525
    H     -7.43992630      1.01574060     -0.33942867      0.91223394
