88

C          8.05180        1.06850       -2.72860
C          7.47300        0.96640       -1.46920
C          8.25750        0.36910       -0.50960
C          9.53760       -0.09440       -0.80510
C         10.08610        0.01860       -2.05920
C          9.30180        0.62470       -3.04000
C          8.04580        0.07930        0.81550
C          9.19230       -0.55540        1.31230
N         10.06140       -0.63680        0.29930
C          9.27370       -0.98310        2.59680
C          8.20570       -0.79140        3.43770
C          7.08160       -0.17070        2.96320
C          6.97570        0.28560        1.62470
H          6.21720        0.00210        3.58390
H         11.01610       -1.07480        0.39450
H          8.29240       -1.14150        4.46110
H          6.49240        1.33250       -1.33170
H         11.07660       -0.32960       -2.31150
H          9.74820        0.70650       -4.01780
H          7.49340        1.52850       -3.55780
C          0.03070       -0.89910        0.25260
N          1.02140        0.03630        0.53910
C          2.28750       -0.34510        0.69740
N          2.65060       -1.64340        0.58440
C          1.72050       -2.54330        0.30840
N          0.47520       -2.10700        0.16150
C          3.39750        0.58460        0.91670
N          4.65360        0.13550        1.10390
C          5.72120        0.92100        1.24430
N          5.54780        2.23400        1.19350
C          4.32740        2.75780        1.01130
N          3.27990        1.92620        0.87820
H          4.17320        3.85270        0.97560
H          1.99310       -3.58330        0.21290
C         -4.80550       -1.43530       -0.57570
C         -6.08260       -0.87130       -0.73600
C         -6.25130        0.44910       -0.56700
C         -5.12970        1.23360       -0.23390
C         -3.87610        0.68720       -0.07590
C         -3.69450       -0.70650       -0.25300
C         -2.81470        1.52920        0.22140
C         -1.57770        0.87680        0.31250
C         -1.31890       -0.43640        0.15350
C         -2.40790       -1.25780       -0.13480
N         -2.19950       -2.58780       -0.25140
C         -2.01780       -3.69740        0.14810
C         -1.94490       -4.12620        1.56750
N         -2.85530        2.82420        0.48860
C         -2.90200        3.97400        0.75200
C         -2.44280        5.01700       -0.25110
N         -5.45800        2.60940       -0.13240
C         -6.00430        3.25780       -1.11770
C         -6.31050        4.71190       -0.87470
N         -4.78130       -2.83070       -0.78440
C         -5.61880       -3.66320       -0.22730
C         -6.71040       -3.34530        0.70310
C         -5.49070       -5.10060       -0.61760
C         -1.75650       -4.80190       -0.86310
C         -3.37150        4.56070        2.09040
C         -6.28360        2.65530       -2.43180
H         -6.92520       -1.46420       -1.01830
H         -0.74960        1.54970        0.54720
H         -2.48020       -4.70010       -1.70210
H         -1.94150       -5.75000       -0.33260
H         -0.71800       -4.70910       -1.24460
H         -2.78440       -4.87390        1.69630
H         -0.97850       -4.63320        1.79190
H         -2.12750       -3.27640        2.24870
H         -4.70910       -5.58240        0.02170
H         -5.21110       -5.11770       -1.69560
H         -6.42570       -5.65860       -0.48940
H         -6.84360       -4.21310        1.43400
H         -7.66020       -3.32420        0.12850
H         -6.54500       -2.46090        1.32710
H         -7.42140        4.78170       -0.67650
H         -6.13170        5.29480       -1.79540
H         -5.74630        5.08140        0.00230
H         -6.12160        3.48680       -3.19170
H         -7.33690        2.34810       -2.56030
H         -5.61370        1.81290       -2.69460
H         -4.35340        4.06750        2.34590
H         -2.60450        4.41840        2.86000
H         -3.58900        5.60580        1.92960
H         -3.26040        5.20550       -0.93760
H         -2.19470        5.98350        0.27670
H         -1.51840        4.64910       -0.70480
H         10.18180       -1.48630        2.98150
H         -7.24350        0.90800       -0.67270
