57

C         -6.58760       -0.33990       -2.32350
C         -5.85060       -0.21490       -1.13930
C         -6.50040        0.19920       -0.01100
C         -7.87380        0.48200       -0.05270
C         -8.54810        0.34170       -1.24220
C         -7.92510       -0.06800       -2.39320
C         -6.05620        0.38550        1.29790
C         -7.20590        0.77020        2.00900
N         -8.25960        0.81880        1.17810
C         -7.14410        0.99850        3.37670
C         -5.93050        0.83720        3.99500
C         -4.81750        0.47020        3.30160
C         -4.85320        0.23330        1.89830
H         -3.86470        0.34210        3.77250
H         -9.22040        1.07980        1.46530
H         -5.84490        1.00700        5.07610
H         -4.83620       -0.50150       -1.16130
H         -9.60620        0.55020       -1.31760
H         -8.48400       -0.16970       -3.32630
H         -6.03040       -0.66870       -3.19210
S          1.46850       -1.15960       -0.36740
C          2.28610       -0.73570       -1.78220
N          1.35160       -0.00610       -2.40590
N          0.23550        0.16580       -1.85950
C         -0.01170       -0.37340       -0.67160
C         -1.24040       -0.29410        0.13780
N         -1.49520       -0.82280        1.32680
N         -2.59890       -0.65390        1.87440
C         -3.57040        0.08920        1.24190
S         -2.72330        0.48040       -0.15320
C          5.78250       -1.79550       -2.67660
C          5.68160       -1.28990       -3.93360
S          4.12840       -0.61740       -3.96030
C          3.63110       -1.00260       -2.34440
C          4.70900       -1.64180       -1.84760
C          4.83510       -2.10680       -0.40630
C          5.45590       -1.12100        0.49690
C          4.86630        0.20680        0.68880
C          5.71630        1.00100        1.66760
C          7.11040        1.19870        1.18580
C          7.06540        1.94590       -0.13510
H          6.73550       -2.30970       -2.38640
H          8.09080        2.26670       -0.44770
H          6.68000        1.32380       -0.96870
H          6.47720        2.86590        0.03210
H          3.83580       -2.37500       -0.03010
H          5.43470       -3.03390       -0.40390
H          6.55140       -0.96020        0.21440
H          5.56960       -1.58080        1.53390
H          4.83820        0.83810       -0.24700
H          3.85420        0.15860        1.14990
H          7.75160        0.31100        1.17210
H          7.60490        1.91860        1.90020
H          5.24270        2.00840        1.74070
H          5.66200        0.57430        2.69470
H         -8.01670        1.29340        3.94310
H          6.44340       -1.31940       -4.73790
