este.xyz
 OpenBabel03061909153D

 27 27  0  0  0  0  0  0  0  0999 V2000
    4.2638    2.2363    1.9558 C   0  0  0  0  0  0  0  0  0  0  0  0
    5.5531    1.7746    2.1486 C   0  0  0  0  0  0  0  0  0  0  0  0
    5.9213    1.4897    3.7816 S   0  0  0  0  0  0  0  0  0  0  0  0
    4.3662    1.9442    4.2653 C   0  0  0  0  0  0  0  0  0  0  0  0
    3.5316    2.3142    3.2252 C   0  0  0  0  0  0  0  0  0  0  0  0
    6.8569    1.4139    0.8363 Br  0  0  0  0  0  0  0  0  0  0  0  0
    3.8908    1.9285    6.0869 Br  0  0  0  0  0  0  0  0  0  0  0  0
    2.0931    2.7540    3.3886 C   0  0  0  0  0  0  0  0  0  0  0  0
    1.9449    4.2769    3.3744 C   0  0  0  0  0  0  0  0  0  0  0  0
    0.4834    4.6919    3.5539 C   0  0  0  0  0  0  0  0  0  0  0  0
    0.3263    6.2120    3.4986 C   0  0  0  0  0  0  0  0  0  0  0  0
   -1.1321    6.6280    3.6892 C   0  0  0  0  0  0  0  0  0  0  0  0
   -1.2938    8.1380    3.6168 C   0  0  0  0  0  0  0  0  0  0  0  0
    3.8746    2.4897    1.0253 H   0  0  0  0  0  0  0  0  0  0  0  0
   -0.7034    8.6336    4.3940 H   0  0  0  0  0  0  0  0  0  0  0  0
   -0.9709    8.5205    2.6433 H   0  0  0  0  0  0  0  0  0  0  0  0
   -2.3432    8.4142    3.7591 H   0  0  0  0  0  0  0  0  0  0  0  0
    1.6807    2.3621    4.3255 H   0  0  0  0  0  0  0  0  0  0  0  0
    1.4679    2.3014    2.6124 H   0  0  0  0  0  0  0  0  0  0  0  0
    2.3288    4.6830    2.4308 H   0  0  0  0  0  0  0  0  0  0  0  0
    2.5515    4.7159    4.1765 H   0  0  0  0  0  0  0  0  0  0  0  0
    0.1110    4.3178    4.5154 H   0  0  0  0  0  0  0  0  0  0  0  0
   -0.1289    4.2318    2.7687 H   0  0  0  0  0  0  0  0  0  0  0  0
   -1.4965    6.2730    4.6602 H   0  0  0  0  0  0  0  0  0  0  0  0
   -1.7568    6.1623    2.9181 H   0  0  0  0  0  0  0  0  0  0  0  0
    0.6908    6.5829    2.5328 H   0  0  0  0  0  0  0  0  0  0  0  0
    0.9451    6.6748    4.2769 H   0  0  0  0  0  0  0  0  0  0  0  0
  1  2  2  0  0  0  0
  1  5  1  0  0  0  0
  2  3  1  0  0  0  0
  3  4  1  0  0  0  0
  4  7  1  0  0  0  0
  5  8  1  0  0  0  0
  5  4  2  0  0  0  0
  6  2  1  0  0  0  0
  8 18  1  0  0  0  0
  9  8  1  0  0  0  0
  9 10  1  0  0  0  0
  9 21  1  0  0  0  0
 10 22  1  0  0  0  0
 11 10  1  0  0  0  0
 11 12  1  0  0  0  0
 11 27  1  0  0  0  0
 12 24  1  0  0  0  0
 13 12  1  0  0  0  0
 13 17  1  0  0  0  0
 13 15  1  0  0  0  0
 14  1  1  0  0  0  0
 16 13  1  0  0  0  0
 19  8  1  0  0  0  0
 20  9  1  0  0  0  0
 23 10  1  0  0  0  0
 25 12  1  0  0  0  0
 26 11  1  0  0  0  0
M  END
