42

C         -4.61760       -2.71050        0.62280
C         -3.89350       -1.57010        0.31990
C         -4.52770       -0.46200       -0.15120
C         -5.91910       -0.46570       -0.32870
C         -6.63960       -1.59560       -0.02850
C         -5.98370       -2.70710        0.44360
C         -4.11620        0.81460       -0.51540
C         -5.27480        1.53010       -0.88860
N         -6.33940        0.72370       -0.76420
C         -5.21020        2.85530       -1.27040
C         -3.98430        3.47040       -1.28170
C         -2.85910        2.77300       -0.92360
C         -2.91760        1.40960       -0.53260
H         -1.87800        3.22060       -0.92040
H         -7.32360        0.99900       -0.97750
H         -3.87330        4.51540       -1.57170
H         -2.86380       -1.62150        0.52140
H         -7.69990       -1.62760       -0.15460
H         -6.56120       -3.58940        0.67480
H         -4.12320       -3.60870        1.00020
S          3.48180       -1.07850        0.01850
C          4.91030       -0.26240        0.47490
N          4.43870        0.95980        0.71500
N          3.20580        1.19430        0.56720
C          2.39080        0.22350        0.17450
C          0.95080        0.31410       -0.04620
N          0.13320       -0.65630       -0.43930
N         -1.08650       -0.40910       -0.58140
C         -1.61960        0.75620       -0.36640
S         -0.14060        1.60330        0.10630
N          9.51810        0.49120        1.45450
C          8.56740       -0.37070        1.06720
C          7.31510        0.11830        0.98280
N          7.15460        1.41400        1.29520
S          8.69680        1.92820        1.69170
C          6.28940       -0.75820        0.57900
C          6.51370       -2.07430        0.27220
N          7.77650       -2.54520        0.36310
C          8.75720       -1.73540        0.74180
H          5.69050       -2.72280       -0.03750
H         -6.08810        3.41700       -1.55770
H          9.75000       -2.16030        0.79890
