45

C         -4.28680        0.42810        2.80430
C         -3.64160        0.33790        1.58090
C         -4.40620        0.04520        0.48380
C         -5.78730       -0.14730        0.61070
C         -6.39830       -0.05150        1.83450
C         -5.64090        0.23730        2.93520
C         -4.11600       -0.07990       -0.84740
C         -5.32610       -0.33590       -1.50660
N         -6.30830       -0.37150       -0.59460
C         -5.43110       -0.46900       -2.87320
C         -4.29590       -0.34780       -3.64060
C         -3.11400       -0.10450       -3.00580
C         -3.00780        0.02920       -1.59140
H         -2.17780        0.00480       -3.53520
H         -7.33750       -0.54870       -0.79020
H         -4.32100       -0.43930       -4.71200
H         -2.60790        0.54000        1.56510
H         -7.45930       -0.20080        1.93330
H         -6.14610        0.30630        3.89060
H         -3.73360        0.65810        3.72520
N          3.27920        0.11510       -0.03380
C          2.40270        0.66030       -0.81400
C          2.85790        1.59780       -1.71580
S          4.52780        1.62880       -1.37470
C          4.54100        0.44960       -0.10910
C          0.94970        0.33120       -0.78720
S         -0.29860        0.95760       -1.73780
C         -1.64210        0.04690       -1.06200
C         -0.96640       -0.68100       -0.13310
N          0.31400       -0.52340       -0.01460
H          2.28130        2.17350       -2.46150
H         -1.49630       -1.43110        0.50920
C          7.77430       -0.94080        2.10440
C          6.53010       -1.44330        2.36360
C          5.45840       -0.97940        1.62660
C          5.69590       -0.03520        0.66890
C          6.96340        0.49290        0.38740
C          8.00800        0.03480        1.11220
N          7.23530        1.41390       -0.53770
S          8.89390        1.64280       -0.41100
N          9.19960        0.55330        0.82410
H          6.34490       -2.19070        3.12230
H          4.46860       -1.36930        1.82230
H         -6.36580       -0.66520       -3.37730
H          8.58660       -1.32980        2.70300
