   48
Geometry Step: 3419
    C     -5.56664797     -2.20716587      1.13970762      4.11303075
    C     -4.64312517     -1.25197715      0.72295683      4.08168030
    C     -5.10794289     -0.05442163      0.14622335      4.03395382
    C     -6.51199421      0.12070654     -0.00844742      3.86585861
    C     -7.44487226     -0.83781600      0.41597266      4.16330279
    C     -6.95021404     -2.00303893      0.99576734      4.06708242
    C     -4.47940459      1.13054135     -0.41781741      4.04849169
    C     -5.54296299      1.94556180     -0.90705264      3.86538105
    N     -6.75070329      1.33169424     -0.63433205      5.17430924
    C     -5.33158879      3.16166469     -1.57374829      4.16126468
    C     -4.01261277      3.56563639     -1.76714186      4.07059623
    C     -2.94628663      2.79102886     -1.29196599      4.13642643
    C     -3.14448664      1.58229341     -0.59849731      3.99246677
    H     -1.93016226      3.14687718     -1.43941636      0.91756246
    H     -7.66200277      1.69437897     -0.88619225      0.78384944
    H     -3.80389478      4.49702596     -2.28553121      0.91691821
    H     -3.58180218     -1.44333321      0.84237951      0.90527328
    H     -8.51222764     -0.67753718      0.28989248      0.91750622
    H     -7.64215524     -2.76881347      1.33585817      0.92087120
    H     -5.21196638     -3.13184125      1.58628853      0.91820648
    C      3.62191756     -0.61725638      0.16090182      3.85281260
    N      3.23289501     -1.31427161      1.23759504      5.14743495
    O      1.89908668     -1.10694307      1.38493980      6.05281183
    C      1.44830950     -0.29154539      0.41865966      3.77420595
    C      2.49784156      0.05788907     -0.40670290      4.27739291
    C      0.03498660      0.05957866      0.40033485      3.88345143
    N     -0.82720820     -0.40070289      1.31874513      5.16202098
    O     -2.04296994      0.11643658      1.00077387      6.05677345
    C     -1.95672363      0.88382704     -0.09575977      3.75617752
    C     -0.64285617      0.89994474     -0.52896718      4.27751751
    H     -0.23187913      1.41055438     -1.38759844      0.88606048
    H      2.46426831      0.70976521     -1.26772062      0.89064968
    C      6.94821144     -1.89855565      2.45076743      3.93199832
    N      5.89299385     -1.48690142      1.75918751      5.25235943
    C      6.11115283     -1.05187799      0.47612375      3.85273455
    C      7.43834165     -1.02789536     -0.06384927      3.83332715
    N      8.51394874     -1.46129194      0.67620007      5.27742974
    C      8.26188582     -1.89280109      1.90565695      3.92563320
    C      7.65391186     -0.54836688     -1.38596313      4.12551157
    C      6.58587144     -0.10671865     -2.13873055      4.08373308
    C      5.27620090     -0.13234673     -1.61484546      4.11399477
    C      5.00955859     -0.59934722     -0.33133552      3.99657652
    H      4.45584380      0.21110872     -2.23993808      0.91678332
    H      6.74465821      0.26151285     -3.14896828      0.91617403
    H      9.11100747     -2.24356912      2.50544695      0.94249594
    H      6.77824685     -2.24483971      3.47770737      0.94055844
    H     -6.16497795      3.75865393     -1.93303938      0.91428793
    H      8.66262985     -0.53560477     -1.79002531      0.90506067
