48

C         -5.90630       -1.89780        1.33210
C         -4.87420       -1.06440        0.88440
C         -5.18580        0.01180        0.12330
C         -6.51200        0.25880       -0.19610
C         -7.53250       -0.57050        0.24990
C         -7.22560       -1.66200        1.02390
C         -4.41980        0.99590       -0.48500
C         -5.30240        1.81370       -1.16640
N         -6.52980        1.34680       -0.97030
C         -4.88140        2.88100       -1.91440
C         -3.54070        3.13000       -1.97540
C         -2.66700        2.32500       -1.29880
C         -3.07110        1.21330       -0.51370
H         -1.58890        2.50550       -1.32670
H         -7.43520        1.74880       -1.35540
H         -3.12180        3.94930       -2.54360
H         -3.92020       -1.39510        1.17070
H         -8.55840       -0.37150       -0.00110
H         -8.01130       -2.32550        1.38550
H         -5.69500       -2.77560        1.95010
C          3.64440       -0.55180        0.38810
N          3.35810       -1.19990        1.52380
O          2.08840       -1.11540        1.75890
C          1.46890       -0.43370        0.83440
C          2.44120       -0.05400       -0.06680
C          0.03760       -0.15450        0.80110
N         -0.87320       -0.55020        1.71020
O         -2.04870       -0.11390        1.34690
C         -2.06700        0.54930        0.27630
C         -0.69290        0.54840       -0.12530
H         -0.30440        1.01140       -0.99620
H          2.27500        0.53370       -0.97170
C          7.09800       -2.17270        2.00530
N          5.97780       -1.64670        1.48050
C          6.06490       -0.95270        0.32880
C          7.29000       -0.79580       -0.28500
N          8.40280       -1.34600        0.28150
C          8.34540       -2.04390        1.43060
C          7.43790       -0.09490       -1.46540
C          6.29550        0.44760       -2.01080
C          5.05030        0.31450       -1.42960
C          4.96320       -0.39330       -0.25570
H          4.17150        0.75690       -1.88970
H          6.41950        1.00470       -2.95100
H          9.23340       -2.48140        1.88000
H          7.05520       -2.74160        2.94090
H         -5.57090        3.52950       -2.45510
H          8.41760        0.02880       -1.95350
