
     RDKit          3D

  0  0  0  0  0  0  0  0  0  0999 V3000
M  V30 BEGIN CTAB
M  V30 COUNTS 47 52 0 0 0
M  V30 BEGIN ATOM
M  V30 1 C -4.0989 -1.6840 2.7422 0
M  V30 2 C -3.6942 -0.9680 1.6207 0
M  V30 3 C -4.5573 -0.1197 0.9758 0
M  V30 4 C -5.8703 0.0371 1.4352 0
M  V30 5 C -6.2614 -0.6645 2.5314 0
M  V30 6 C -5.3911 -1.5188 3.1855 0
M  V30 7 C -4.4559 0.6839 -0.1651 0
M  V30 8 C -5.6947 1.2784 -0.3548 0
M  V30 9 N -6.5160 0.8778 0.6136 0
M  V30 10 C -5.9049 2.0811 -1.4384 0
M  V30 11 C -4.9116 2.3274 -2.3674 0
M  V30 12 C -3.7101 1.7309 -2.1428 0
M  V30 13 C -3.4406 0.8888 -1.0262 0
M  V30 14 H -2.8864 1.8967 -2.8553 0
M  V30 15 H -7.5093 1.1607 0.7335 0
M  V30 16 H -5.1241 2.9684 -3.2142 0
M  V30 17 H -2.7109 -1.1739 1.3090 0
M  V30 18 H -7.2624 -0.5769 2.9252 0
M  V30 19 H -5.7413 -2.0558 4.0523 0
M  V30 20 H -3.4225 -2.3516 3.2541 0
M  V30 21 N 2.9040 -0.2521 -0.8763 0
M  V30 22 C 1.8843 -0.2950 -1.6715 0
M  V30 23 C 2.1068 -0.6676 -2.9766 0
M  V30 24 S 3.7940 -0.9339 -2.9664 0
M  V30 25 C 4.0999 -0.5581 -1.3232 0
M  V30 26 C 0.5085 0.0453 -1.2029 0
M  V30 27 S -0.9312 0.0416 -2.1054 0
M  V30 28 C -2.0364 0.5429 -0.8418 0
M  V30 29 C -1.1628 0.6699 0.1834 0
M  V30 30 N 0.0951 0.4160 -0.0232 0
M  V30 31 H 1.3574 -0.7569 -3.7842 0
M  V30 32 H -1.5024 1.0131 1.1921 0
M  V30 33 C 5.4001 -0.5973 -0.6727 0
M  V30 34 C 5.5004 -0.2700 0.6558 0
M  V30 35 C 6.7354 -0.2957 1.3185 0
M  V30 36 C 7.8718 -0.6549 0.6295 0
M  V30 37 C 7.7732 -0.9822 -0.6984 0
M  V30 38 C 6.5380 -0.9543 -1.3523 0
M  V30 39 O 9.0960 -0.6756 1.3047 0
M  V30 40 O 6.8798 0.0221 2.6374 0
M  V30 41 O 4.3392 0.0845 1.3113 0
M  V30 42 H 6.4793 -1.2136 -2.3919 0
M  V30 43 H 9.1678 -0.4341 2.2834 0
M  V30 44 H 6.1088 0.2906 3.2007 0
M  V30 45 H 4.3706 0.3298 2.2802 0
M  V30 46 H -6.8901 2.5348 -1.5626 0
M  V30 47 H 8.6768 -1.2675 -1.2449 0
M  V30 END ATOM
M  V30 BEGIN BOND
M  V30 0 1 1 20
M  V30 1 1 2 17
M  V30 2 2 2 1
M  V30 3 1 3 2
M  V30 4 2 4 3
M  V30 5 1 4 5
M  V30 6 2 5 6
M  V30 7 1 6 1
M  V30 8 1 6 19
M  V30 9 1 7 3
M  V30 10 1 8 9
M  V30 11 2 8 7
M  V30 12 1 9 4
M  V30 13 1 10 8
M  V30 14 2 11 10
M  V30 15 1 11 12
M  V30 16 2 12 13
M  V30 17 1 13 7
M  V30 18 1 14 12
M  V30 19 1 15 9
M  V30 20 1 16 11
M  V30 21 1 18 5
M  V30 22 1 22 21
M  V30 23 1 23 24
M  V30 24 2 23 22
M  V30 25 1 24 25
M  V30 26 2 25 21
M  V30 27 1 26 22
M  V30 28 2 26 30
M  V30 29 1 27 28
M  V30 30 1 27 26
M  V30 31 2 28 29
M  V30 32 1 29 30
M  V30 33 1 29 32
M  V30 34 1 31 23
M  V30 35 2 33 34
M  V30 36 1 33 38
M  V30 37 1 34 35
M  V30 38 2 35 36
M  V30 39 1 35 40
M  V30 40 1 36 39
M  V30 41 1 37 36
M  V30 42 2 38 37
M  V30 43 1 39 43
M  V30 44 1 41 34
M  V30 45 1 42 38
M  V30 46 1 44 40
M  V30 47 1 45 41
M  V30 48 1 13 28
M  V30 49 1 25 33
M  V30 50 1 10 46
M  V30 51 1 37 47
M  V30 END BOND
M  V30 END CTAB
M  END

$$$$
