64

C          8.28550        0.82900       -2.90750
C          7.74970        0.52910       -1.67460
C          8.57380        0.19630       -0.63940
C          9.95460        0.16430       -0.82740
C         10.49060        0.46680       -2.06830
C          9.64560        0.79720       -3.10110
C          8.35580       -0.12420        0.69030
C          9.63620       -0.32670        1.24140
N         10.57180       -0.14950        0.31130
C          9.78250       -0.62670        2.57190
C          8.67280       -0.72540        3.34260
C          7.41970       -0.53580        2.82020
C          7.24310       -0.22670        1.44410
H          6.53480       -0.61310        3.42610
H         11.61950       -0.24230        0.45460
H          8.79830       -0.96140        4.39840
H          6.71260        0.61470       -1.58070
H         11.58020        0.43820       -2.20810
H         10.08270        1.02810       -4.05920
H          7.66190        1.09840       -3.76230
S          0.54550       -0.40980       -0.11040
C          1.78490       -0.08640        1.02080
N          1.07120        0.27150        2.08060
N         -0.18710        0.28760        2.01510
C         -0.79890       -0.05420        0.88360
C          3.24460       -0.17830        0.86650
N          3.95420       -0.53670       -0.19510
N          5.20540       -0.54660       -0.11130
C          5.86290       -0.22580        0.95770
S          4.47210        0.14190        1.98670
C         -4.06430       -0.52980       -0.91320
C         -4.98640       -0.21050        0.00400
C         -4.53640        0.17670        1.26390
C         -3.18390        0.22610        1.54510
C         -2.23060       -0.09770        0.61460
C         -2.68430       -0.47820       -0.62400
N         -6.39870       -0.22840       -0.19320
C         -7.02920        0.96290        0.36560
C         -6.45300        2.19670        0.10210
C         -6.96220        3.36910        0.59560
C         -8.09260        3.33610        1.38770
C         -8.65920        2.11050        1.64580
C         -8.13230        0.91080        1.13690
C         -7.12220       -1.15770       -0.96890
C         -8.16760       -1.86610       -0.44600
C         -8.95730       -2.67720       -1.23910
C         -8.72350       -2.80800       -2.58890
C         -7.68270       -2.11360       -3.15040
C         -6.88920       -1.29350       -2.34350
H         -8.41050       -1.87410        0.59440
H         -9.79480       -3.23860       -0.80280
H         -7.49330       -2.21270       -4.21060
H         -6.12930       -0.74750       -2.84420
H         -5.55640        2.20340       -0.52850
H         -6.47980        4.32590        0.36620
H         -8.52310        4.23910        1.79470
H         -9.54060        2.03130        2.25720
H         -8.65750        0.02800        1.41740
H         -5.27980        0.43210        1.99850
H         -2.82640        0.52780        2.52760
H         -1.96540       -0.74490       -1.39620
H         -4.29610       -0.85060       -1.90490
H         10.75550       -0.78030        2.99500
H         -9.37350       -3.46070       -3.17340
