
     RDKit          3D

  0  0  0  0  0  0  0  0  0  0999 V3000
M  V30 BEGIN CTAB
M  V30 COUNTS 64 71 0 0 0
M  V30 BEGIN ATOM
M  V30 1 C 8.2855 0.8290 -2.9075 0
M  V30 2 C 7.7497 0.5291 -1.6746 0
M  V30 3 C 8.5738 0.1963 -0.6394 0
M  V30 4 C 9.9546 0.1643 -0.8274 0
M  V30 5 C 10.4906 0.4668 -2.0683 0
M  V30 6 C 9.6456 0.7972 -3.1011 0
M  V30 7 C 8.3558 -0.1242 0.6903 0
M  V30 8 C 9.6362 -0.3267 1.2414 0
M  V30 9 N 10.5718 -0.1495 0.3113 0
M  V30 10 C 9.7825 -0.6267 2.5719 0
M  V30 11 C 8.6728 -0.7254 3.3426 0
M  V30 12 C 7.4197 -0.5358 2.8202 0
M  V30 13 C 7.2431 -0.2267 1.4441 0
M  V30 14 H 6.5348 -0.6131 3.4261 0
M  V30 15 H 11.6195 -0.2423 0.4546 0
M  V30 16 H 8.7983 -0.9614 4.3984 0
M  V30 17 H 6.7126 0.6147 -1.5807 0
M  V30 18 H 11.5802 0.4382 -2.2081 0
M  V30 19 H 10.0827 1.0281 -4.0592 0
M  V30 20 H 7.6619 1.0984 -3.7623 0
M  V30 21 S 0.5455 -0.4098 -0.1104 0
M  V30 22 C 1.7849 -0.0864 1.0208 0
M  V30 23 N 1.0712 0.2715 2.0806 0
M  V30 24 N -0.1871 0.2876 2.0151 0
M  V30 25 C -0.7989 -0.0542 0.8836 0
M  V30 26 C 3.2446 -0.1783 0.8665 0
M  V30 27 N 3.9542 -0.5367 -0.1951 0
M  V30 28 N 5.2054 -0.5466 -0.1113 0
M  V30 29 C 5.8629 -0.2258 0.9577 0
M  V30 30 S 4.4721 0.1419 1.9867 0
M  V30 31 C -4.0643 -0.5298 -0.9132 0
M  V30 32 C -4.9864 -0.2105 0.0040 0
M  V30 33 C -4.5364 0.1767 1.2639 0
M  V30 34 C -3.1839 0.2261 1.5451 0
M  V30 35 C -2.2306 -0.0977 0.6146 0
M  V30 36 C -2.6843 -0.4782 -0.6240 0
M  V30 37 N -6.3987 -0.2284 -0.1932 0
M  V30 38 C -7.0292 0.9629 0.3656 0
M  V30 39 C -6.4530 2.1967 0.1021 0
M  V30 40 C -6.9622 3.3691 0.5956 0
M  V30 41 C -8.0926 3.3361 1.3877 0
M  V30 42 C -8.6592 2.1105 1.6458 0
M  V30 43 C -8.1323 0.9108 1.1369 0
M  V30 44 C -7.1222 -1.1577 -0.9689 0
M  V30 45 C -8.1676 -1.8661 -0.4460 0
M  V30 46 C -8.9573 -2.6772 -1.2391 0
M  V30 47 C -8.7235 -2.8080 -2.5889 0
M  V30 48 C -7.6827 -2.1136 -3.1504 0
M  V30 49 C -6.8892 -1.2935 -2.3435 0
M  V30 50 H -8.4105 -1.8741 0.5944 0
M  V30 51 H -9.7948 -3.2386 -0.8028 0
M  V30 52 H -7.4933 -2.2127 -4.2106 0
M  V30 53 H -6.1293 -0.7475 -2.8442 0
M  V30 54 H -5.5564 2.2034 -0.5285 0
M  V30 55 H -6.4798 4.3259 0.3662 0
M  V30 56 H -8.5231 4.2391 1.7947 0
M  V30 57 H -9.5406 2.0313 2.2572 0
M  V30 58 H -8.6575 0.0280 1.4174 0
M  V30 59 H -5.2798 0.4321 1.9985 0
M  V30 60 H -2.8264 0.5278 2.5276 0
M  V30 61 H -1.9654 -0.7449 -1.3962 0
M  V30 62 H -4.2961 -0.8506 -1.9049 0
M  V30 63 H 10.7555 -0.7803 2.9950 0
M  V30 64 H -9.3735 -3.4607 -3.1734 0
M  V30 END ATOM
M  V30 BEGIN BOND
M  V30 0 1 1 20
M  V30 1 1 2 17
M  V30 2 2 2 1
M  V30 3 1 3 2
M  V30 4 2 4 3
M  V30 5 1 4 5
M  V30 6 2 5 6
M  V30 7 1 6 1
M  V30 8 1 6 19
M  V30 9 1 7 3
M  V30 10 1 8 9
M  V30 11 2 8 7
M  V30 12 1 9 4
M  V30 13 1 10 8
M  V30 14 2 11 10
M  V30 15 1 11 12
M  V30 16 2 12 13
M  V30 17 1 13 7
M  V30 18 1 14 12
M  V30 19 1 15 9
M  V30 20 1 16 11
M  V30 21 1 18 5
M  V30 22 1 21 25
M  V30 23 1 21 22
M  V30 24 2 22 23
M  V30 25 1 24 23
M  V30 26 2 25 24
M  V30 27 1 26 22
M  V30 28 1 26 30
M  V30 29 1 27 28
M  V30 30 2 27 26
M  V30 31 2 28 29
M  V30 32 1 29 30
M  V30 33 1 31 62
M  V30 34 2 31 36
M  V30 35 1 32 31
M  V30 36 2 33 32
M  V30 37 1 33 34
M  V30 38 2 34 35
M  V30 39 1 35 36
M  V30 40 1 36 61
M  V30 41 1 37 44
M  V30 42 1 37 32
M  V30 43 1 38 37
M  V30 44 1 39 38
M  V30 45 1 39 54
M  V30 46 2 40 39
M  V30 47 2 41 42
M  V30 48 1 41 40
M  V30 49 1 42 43
M  V30 50 1 43 58
M  V30 51 2 43 38
M  V30 52 2 44 45
M  V30 53 1 45 46
M  V30 54 1 45 50
M  V30 55 1 46 51
M  V30 56 2 47 46
M  V30 57 1 48 47
M  V30 58 2 49 48
M  V30 59 1 49 44
M  V30 60 1 52 48
M  V30 61 1 53 49
M  V30 62 1 55 40
M  V30 63 1 56 41
M  V30 64 1 57 42
M  V30 65 1 59 33
M  V30 66 1 60 34
M  V30 67 1 13 29
M  V30 68 1 25 35
M  V30 69 1 10 63
M  V30 70 1 47 64
M  V30 END BOND
M  V30 END CTAB
M  END

$$$$
