   80
Geometry Step: 2874
    C      8.71185055      0.62368724      1.21601381      4.11647964
    C      7.57620622      0.14843829      0.56363271      4.08596326
    C      7.66137335     -1.04559470     -0.17558988      4.03083467
    C      8.90028715     -1.74604333     -0.19620166      3.86745297
    C     10.04778895     -1.26482510      0.45226812      4.16580286
    C      9.93551410     -0.06568318      1.15278885      4.07320920
    C      6.71766091     -1.85176736     -0.93323673      4.06509153
    C      7.42816943     -3.01777846     -1.33714051      3.86435269
    N      8.74137317     -2.92154575     -0.91007098      5.17803013
    C      6.82141997     -4.07664465     -2.03055064      4.17847077
    C      5.45932330     -3.96063847     -2.30431234      4.07179663
    C      4.73941086     -2.81739820     -1.93151627      4.14831478
    C      5.34389619     -1.73098026     -1.27138545      3.93565660
    H      3.68436058     -2.75204368     -2.18704759      0.91784326
    H      9.45530009     -3.62589225     -1.04937301      0.78628508
    H      4.94663172     -4.76418648     -2.82643334      0.92241374
    H      6.63914921      0.69083666      0.64713977      0.91002309
    H     10.98563060     -1.81303343      0.41798726      0.91982984
    H     10.80302162      0.33688103      1.66908183      0.92341121
    H      8.65246854      1.54527270      1.78850476      0.92060741
    N      0.44835534      1.13654061      0.03661364      5.33845491
    C      1.57744233      1.88865282     -0.25753329      3.86353520
    C      1.39608958      3.25964920     -0.21798582      4.16094150
    S     -0.25652653      3.63541208      0.20042173      6.01665550
    C     -0.60459031      1.88576785      0.31516776      3.76275415
    C      2.80868487      1.19009944     -0.57924501      3.78810222
    S      2.85027723     -0.58265658     -0.56671818      6.02573506
    C      4.55691924     -0.52152386     -1.00447298      4.01489043
    C      4.93805206      0.80125355     -1.14451768      3.97942256
    N      3.96683429      1.74736202     -0.90466620      5.33343163
    H      2.14746719      4.01338028     -0.41313823      0.88683933
    H      5.92777401      1.12069802     -1.46440025      0.91894485
    C     -1.90727568      1.34710300      0.70347599      4.09044738
    C     -3.03792959      2.19627450      0.84723276      3.89024847
    C     -4.29642827      1.66364241      1.22811310      3.87875634
    C     -4.42082047      0.28034485      1.45070926      4.20951115
    C     -3.32548953     -0.58056629      1.27840512      3.88092863
    C     -2.05917669     -0.05211816      0.90764806      3.86354896
    N     -3.42139067     -1.95858360      1.60366550      5.29751022
    C     -4.35020164     -2.72724485      1.13638457      3.76185656
    C     -4.41134663     -4.16328081      1.59441588      4.27945420
    N     -0.94344533     -0.90764336      0.88814780      5.25680667
    C     -0.83691509     -1.94765518      0.13038519      3.74800238
    C     -1.80076390     -2.29972331     -0.98750922      4.28135657
    N     -2.86553451      3.59100363      0.72630432      5.26879341
    C     -3.58073668      4.34991080     -0.04206898      3.74502377
    C     -4.58837792      3.85399022     -1.05838355      4.28081187
    N     -5.36185344      2.55151100      1.52477147      5.30084870
    C     -6.57169314      2.36906685      1.10449621      3.76388744
    C     -7.01055210      1.27636719      0.14411987      4.29391584
    C     -5.38856626     -2.31582892      0.10598769      4.29379543
    C      0.34008178     -2.87324990      0.30422378      4.27409952
    C     -3.36189022      5.84067802      0.00070638      4.27753274
    C     -7.64996147      3.32884510      1.54344702      4.27998681
    H     -6.34389235     -2.09921197      0.58490893      0.90511923
    H     -5.07728247     -1.42737282     -0.43835006      0.90447927
    H     -5.55890991     -3.12335141     -0.60376444      0.91297772
    H     -5.38970146     -4.39162275      2.01747918      0.91077085
    H     -4.26305680     -4.84206471      0.75366662      0.91376059
    H     -3.65232910     -4.36829970      2.34327923      0.89898329
    H     -8.07593803      3.84953339      0.68485152      0.91461321
    H     -7.25907550      4.06671468      2.23752532      0.89947773
    H     -8.46758330      2.79430879      2.02721881      0.90964587
    H     -7.48667173      0.45575398      0.68141254      0.90383887
    H     -6.16643792      0.87045077     -0.40848533      0.90441727
    H     -7.74101363      1.66567341     -0.56294368      0.91339753
    H     -4.53153707      2.77550577     -1.18101585      0.90630336
    H     -5.60353144      4.11006995     -0.75440250      0.90212415
    H     -4.41038280      4.32842415     -2.02304695      0.91365660
    H     -4.28876202      6.35676552      0.25203384      0.91000109
    H     -3.04476584      6.21256148     -0.97395181      0.91114290
    H     -2.60749006      6.10482974      0.73586585      0.89922898
    H      0.00005914     -3.87862512      0.55598215      0.91470253
    H      0.91129802     -2.95292608     -0.62118877      0.91148566
    H      1.00088916     -2.52356927      1.09184821      0.89723201
    H     -2.34501637     -3.21470870     -0.75192637      0.90832732
    H     -2.52417007     -1.50516929     -1.15192995      0.91032833
    H     -1.25610038     -2.47581726     -1.91448872      0.91269633
    H      7.38626048     -4.95631947     -2.32572995      0.91718044
    H     -5.36200695     -0.12047234      1.81458974      0.90540910
