
     RDKit          3D

  0  0  0  0  0  0  0  0  0  0999 V3000
M  V30 BEGIN CTAB
M  V30 COUNTS 49 56 0 0 0
M  V30 BEGIN ATOM
M  V30 1 C -5.4040 -1.5171 -2.4265 0
M  V30 2 C -4.7925 -0.7102 -1.4908 0
M  V30 3 C -5.5694 0.0581 -0.6678 0
M  V30 4 C -6.9562 0.0345 -0.7741 0
M  V30 5 C -7.5143 -0.7897 -1.7270 0
M  V30 6 C -6.7708 -1.5732 -2.5624 0
M  V30 7 C -5.2432 0.9732 0.3223 0
M  V30 8 C -6.4897 1.4735 0.7622 0
M  V30 9 N -7.4925 0.8923 0.0913 0
M  V30 10 C -6.5261 2.4641 1.7307 0
M  V30 11 C -5.3385 2.9266 2.2343 0
M  V30 12 C -4.1317 2.4469 1.8221 0
M  V30 13 C -4.0875 1.4254 0.8288 0
M  V30 14 H -3.1848 2.7862 2.1949 0
M  V30 15 H -8.4929 1.0953 0.2419 0
M  V30 16 H -5.3538 3.7094 2.9953 0
M  V30 17 H -3.7390 -0.7016 -1.5212 0
M  V30 18 H -8.5986 -0.8082 -1.8077 0
M  V30 19 H -7.1694 -2.2210 -3.3068 0
M  V30 20 H -4.7886 -2.1325 -3.0820 0
M  V30 21 N 1.9395 -0.7923 0.0835 0
M  V30 22 C 0.7199 -1.2267 0.1296 0
M  V30 23 C 0.5246 -2.5794 -0.0214 0
M  V30 24 S 2.1254 -3.1388 -0.2215 0
M  V30 25 C 2.9307 -1.6206 -0.0998 0
M  V30 26 C -0.4473 -0.3234 0.3366 0
M  V30 27 S -2.0925 -0.7109 0.4233 0
M  V30 28 C -2.7739 0.8165 0.6674 0
M  V30 29 C -1.5844 1.6045 0.6677 0
M  V30 30 N -0.4815 0.9847 0.5010 0
M  V30 31 H -0.4401 -3.1194 -0.0092 0
M  V30 32 H -1.6356 2.7118 0.8087 0
M  V30 33 S 9.8847 -2.1722 -0.7370 0
M  V30 34 C 8.4258 -1.3365 -0.5144 0
M  V30 35 C 8.8079 -0.0474 -0.3864 0
M  V30 36 C 10.1354 0.2110 -0.4632 0
M  V30 37 C 10.9707 -0.8535 -0.6630 0
M  V30 38 C 6.9605 -1.4524 -0.4088 0
M  V30 39 C 6.3989 -0.2305 -0.2119 0
M  V30 40 C 7.5423 0.7351 -0.1862 0
M  V30 41 C 5.0468 -0.1944 -0.0968 0
M  V30 42 C 4.3845 -1.3746 -0.1884 0
M  V30 43 S 5.6271 -2.5101 -0.4303 0
M  V30 44 H 4.4772 0.7519 0.0667 0
M  V30 45 H 10.5888 1.2231 -0.3753 0
M  V30 46 H 7.4392 1.4927 -1.0001 0
M  V30 47 H 7.5681 1.3042 0.7629 0
M  V30 48 H -7.4733 2.8515 2.0698 0
M  V30 49 H 12.0740 -0.8362 -0.7512 0
M  V30 END ATOM
M  V30 BEGIN BOND
M  V30 0 1 1 20
M  V30 1 1 2 17
M  V30 2 2 2 1
M  V30 3 1 3 2
M  V30 4 2 4 3
M  V30 5 1 4 5
M  V30 6 2 5 6
M  V30 7 1 6 1
M  V30 8 1 6 19
M  V30 9 1 7 3
M  V30 10 1 8 9
M  V30 11 2 8 7
M  V30 12 1 9 4
M  V30 13 1 10 8
M  V30 14 2 11 10
M  V30 15 1 11 12
M  V30 16 2 12 13
M  V30 17 1 13 7
M  V30 18 1 14 12
M  V30 19 1 15 9
M  V30 20 1 16 11
M  V30 21 1 18 5
M  V30 22 1 22 21
M  V30 23 1 23 24
M  V30 24 2 23 22
M  V30 25 1 24 25
M  V30 26 2 25 21
M  V30 27 1 26 22
M  V30 28 2 26 30
M  V30 29 1 27 28
M  V30 30 1 27 26
M  V30 31 2 28 29
M  V30 32 1 29 30
M  V30 33 1 29 32
M  V30 34 1 31 23
M  V30 35 1 33 37
M  V30 36 2 34 35
M  V30 37 1 34 33
M  V30 38 1 35 36
M  V30 39 1 36 45
M  V30 40 2 36 37
M  V30 41 1 38 34
M  V30 42 2 39 38
M  V30 43 1 39 40
M  V30 44 1 40 35
M  V30 45 1 40 46
M  V30 46 1 40 47
M  V30 47 1 41 39
M  V30 48 2 42 41
M  V30 49 1 42 43
M  V30 50 1 43 38
M  V30 51 1 44 41
M  V30 52 1 13 28
M  V30 53 1 25 42
M  V30 54 1 10 48
M  V30 55 1 37 49
M  V30 END BOND
M  V30 END CTAB
M  END

$$$$
