   48
Geometry Step: 1174
    C      5.35895780     -2.04360247     -1.77871423      4.11607751
    C      4.48485555     -1.17568639     -1.12795749      4.08642995
    C      4.99443667     -0.28908383     -0.16156381      4.03181785
    C      6.38395427     -0.33950610      0.14285825      3.86684220
    C      7.26779819     -1.20655607     -0.51753390      4.16467504
    C      6.73440824     -2.05266695     -1.48728409      4.07225195
    C      4.41249052      0.70433551      0.72635729      4.06396704
    C      5.47681255      1.17310234      1.54806303      3.86464427
    N      6.65436188      0.55544666      1.16377095      5.17714206
    C      5.28472584      2.09606361      2.58786104      4.17487736
    C      3.98286098      2.54024026      2.81348514      4.07082992
    C      2.91888570      2.10575837      2.01095574      4.14447253
    C      3.10366278      1.21074777      0.94106687      3.93996514
    H      1.92171907      2.49559348      2.20026876      0.91556500
    H      7.55816452      0.69662358      1.59792910      0.78555957
    H      3.78787786      3.24449060      3.61770766      0.92030499
    H      3.42403276     -1.20452684     -1.35885450      0.91158549
    H      8.32673023     -1.22407820     -0.27364953      0.91901960
    H      7.38848170     -2.73917137     -2.01829426      0.92272144
    H      4.97161942     -2.73059351     -2.52609535      0.92050513
    N     -2.53813830      0.11644311     -0.18521566      5.34378720
    C     -1.64482688      0.17750977     -1.24456405      3.85701842
    C     -2.20633167     -0.02668999     -2.49466393      4.15169471
    S     -3.91988580     -0.30647790     -2.34799328      5.98775307
    C     -3.77621385     -0.12984298     -0.58678485      3.78696102
    C     -0.24214739      0.44013555     -0.97147860      3.79970901
    S      0.32923122      0.67598328      0.68985702      6.01631313
    C      1.96709791      0.87864864      0.07288071      4.00603390
    C      1.94396276      0.77726882     -1.30693876      3.98211632
    N      0.71762974      0.53083026     -1.88140807      5.32685251
    H     -1.68110342     -0.01864493     -3.44071108      0.88240250
    H      2.81468866      0.91610104     -1.94404255      0.91622256
    C     -7.70739027     -0.90880161     -1.86302042      3.92904742
    N     -6.46098555     -0.66318317     -1.47426015      5.24706050
    C     -6.23578130     -0.50986686     -0.13146492      3.86516370
    C     -7.31390795     -0.61344299      0.80394611      3.82991080
    N     -8.59542645     -0.86827477      0.37628205      5.26822847
    C     -8.77722223     -1.01119414     -0.93118729      3.92571493
    C     -7.05040471     -0.44977388      2.19268985      4.12259731
    C     -5.76314108     -0.19375248      2.62343348      4.08163783
    C     -4.69788710     -0.09077477      1.70599080      4.09031259
    C     -4.90428883     -0.24305385      0.33580586      4.01072286
    H     -3.69292321      0.11103996      2.06655118      0.89765250
    H     -5.56111114     -0.06874875      3.68409650      0.91247711
    H     -9.79551320     -1.21475796     -1.28359891      0.93829387
    H     -7.89012426     -1.03189114     -2.93674180      0.93631135
    H      6.11409053      2.43681319      3.20106508      0.91625506
    H     -7.86878277     -0.52843191      2.90319900      0.90249534
